%nproc=4
%mem=12gb
#p UB3LYP/def2TZVP IOp(3/76=1000001500) IOp(3/77=0720008500) IOp(3/78=0810010000) scf=(maxconventionalcycles=120,xqc) int=ultrafine
#p EmpiricalDispersion=GD3BJ

BOMFER_1_opt_5_SPE

2 5
O         -0.65819        1.43935       -0.35862
O         -0.00000        3.07357       -1.75015
N          1.50710        2.12923       -0.41362
H          2.23180        2.69013       -0.86371
N          1.83200        1.11443        0.51935
H          2.43159        0.40770        0.07202
C          0.22819        2.16115       -0.81719
Fe         0.00000        0.00000        1.07248
O         -0.54387        1.23810        2.66873
O          0.54387       -1.23810        2.66873
H         -0.88677        2.13288        2.49770
H          0.88677       -2.13288        2.49770
H         -1.09054        0.87301        3.38619
H          1.09054       -0.87301        3.38619
O          0.65819       -1.43935       -0.35862
O          0.00000       -3.07357       -1.75015
N         -1.50710       -2.12923       -0.41362
H         -2.23180       -2.69013       -0.86371
N         -1.83200       -1.11443        0.51935
H         -2.43159       -0.40770        0.07202
C         -0.22819       -2.16115       -0.81719
C          1.36545       -3.11679       -2.25027
H          1.62840       -2.15022       -2.70403
H          1.36839       -3.91014       -3.00767
H          2.05870       -3.36250       -1.43303
C         -1.36545        3.11679       -2.25027
H         -1.62840        2.15022       -2.70403
H         -1.36839        3.91014       -3.00767
H         -2.05870        3.36250       -1.43303
H          2.36222        1.53019        1.29515
H         -2.36222       -1.53019        1.29515

