%nproc=4
%mem=12gb
#p UB3LYP/def2TZVP IOp(3/76=1000001500) IOp(3/77=0720008500) IOp(3/78=0810010000) scf=(maxconventionalcycles=120,xqc) int=ultrafine
#p EmpiricalDispersion=GD3BJ

CAFNIG_1_opt_6_SPE

0 6
Fe        -0.00000        0.00000        0.63771
Cl        -0.00000        0.00000        2.94400
N          0.00000       -0.00000       -1.63509
C         -0.96351        0.59834       -2.32529
C          0.96351       -0.59834       -2.32529
C         -1.01544        0.61424       -3.71408
C          1.01544       -0.61424       -3.71408
C          0.00000       -0.00000       -4.41926
N          0.39127        2.12962        0.52592
N         -0.39127       -2.12962        0.52592
C          1.26309        2.66377       -0.35331
C         -1.26309       -2.66377       -0.35331
C         -1.53635       -4.03097       -0.39014
C         -0.91219       -4.85794        0.47574
C          0.00000       -4.34057        1.38318
C         -0.23573        2.95751        1.37124
C          0.23573       -2.95751        1.37124
H         -1.74925        1.06378       -1.71924
H          1.74925       -1.06378       -1.71924
H         -1.84552        1.11963       -4.21452
H          1.84552       -1.11963       -4.21452
H          0.00000       -0.00000       -5.51469
H          1.78339        1.95372       -1.00065
H         -1.78339       -1.95372       -1.00065
H         -2.26307       -4.40167       -1.11888
H         -1.12160       -5.93349        0.46709
C          1.53635        4.03097       -0.39014
C          0.91219        4.85794        0.47574
C          0.00000        4.34057        1.38318
H          2.26307        4.40167       -1.11888
H          1.12160        5.93349        0.46709
Cl         2.28362       -0.45148        0.55753
Cl        -2.28362        0.45148        0.55753
H          0.93430       -2.48241        2.06507
H         -0.93430        2.48241        2.06507
H          0.52845       -4.97202        2.10134
H         -0.52845        4.97202        2.10134

