%nproc=4
%mem=12gb
#p UB3LYP/def2TZVP IOp(3/76=1000001500) IOp(3/77=0720008500) IOp(3/78=0810010000) scf=(maxconventionalcycles=120,xqc) int=ultrafine
#p EmpiricalDispersion=GD3BJ

FEPHNA10_1_opt_6_SPE

0 6
Fe         0.58080       -0.72006        0.21010
Cl         0.59477       -0.45482       -2.17417
Cl         1.37647       -2.83294        0.17609
Cl         0.20950       -0.65462        2.53361
N         -1.49525       -1.20608       -0.05065
C         -2.00679       -2.43326       -0.19388
C         -3.39003       -2.65128       -0.31828
C         -1.92492        3.55496        0.00657
C         -0.55472        3.60202        0.16518
C          0.16828        2.41837        0.24610
N         -0.39796        1.21015        0.17505
C         -1.74978        1.15221        0.00937
C         -2.34366       -0.15622       -0.10009
O          2.36352        0.24311        0.31052
C          3.45168       -0.11976       -0.19417
N          4.51718        0.66108       -0.23701
C          4.48114        2.02422        0.29393
C          5.76896        0.21851       -0.84810
H         -1.27380       -3.24732       -0.17102
H         -0.02652        4.55718        0.22910
H          1.25508        2.40864        0.36869
H          3.55285       -1.13456       -0.62300
H          4.37237        2.75962       -0.52339
H          3.63083        2.11361        0.98333
H          5.65086       -0.80683       -1.22824
H          6.04235        0.87876       -1.69004
H          6.58755        0.23415       -0.10728
C         -4.23751       -1.59912       -0.34732
C         -4.53715        0.89199       -0.29913
C         -3.97943        2.13567       -0.21785
C         -3.72594       -0.28468       -0.25754
C         -2.56024        2.29520       -0.07221
H         -5.31853       -1.74405       -0.44716
H         -5.61975        0.77426       -0.40816
H         -4.60434        3.03271       -0.26190
H          5.41733        2.23123        0.83730
H         -2.52215        4.47017       -0.05641
H         -3.75289       -3.67957       -0.39955

