%nproc=4
%mem=12gb
#p UB3LYP/def2TZVP IOp(3/76=1000001500) IOp(3/77=0720008500) IOp(3/78=0810010000) scf=(maxconventionalcycles=120,xqc) int=ultrafine
#p EmpiricalDispersion=GD3BJ

GABPOQ_1_opt_6_SPE

0 6
C         -0.42989       -1.60559       -2.08632
C         -0.30754       -2.47073       -0.82976
H          0.74636       -2.69202       -0.59437
C         -2.76498       -1.95699        0.36438
H         -2.89515       -3.05337        0.36482
H         -3.02009       -1.54838       -0.62714
C         -3.61251       -1.27286        1.41829
H         -4.67850       -1.46793        1.21334
H         -3.38170       -1.63888        2.43316
H         -3.44376       -0.18481        1.39036
Cl        -2.46310        1.14721       -0.99418
Cl        -0.91919        1.43621        2.09006
Fe        -0.39821        0.81369       -0.07801
N          0.21780       -0.28914       -1.89326
H         -0.14744        0.38521       -2.57003
S         -0.99225       -1.64490        0.63538
C          3.59623       -0.90733       -0.38803
H          4.16665       -1.26981       -1.24871
C          2.30652       -0.43917       -0.57322
C          1.69631       -0.34526       -1.95428
H          2.03424        0.61510       -2.38175
N          1.55790        0.00843        0.45398
C          2.09499       -0.00480        1.70224
H          1.42442        0.37705        2.48157
C          3.38388       -0.43403        1.94551
H          3.77178       -0.40866        2.96773
C          4.15905       -0.90667        0.89267
H          5.18012       -1.26402        1.05469
Cl         0.65069        2.67987       -0.89949
H         -0.81932       -3.43689       -0.97254
H          0.00743       -2.13247       -2.95693
H          2.05036       -1.16568       -2.60335
H         -1.49086       -1.40252       -2.30153

