%nproc=4
%mem=12gb
#p UB3LYP/def2TZVP IOp(3/76=1000001500) IOp(3/77=0720008500) IOp(3/78=0810010000) scf=(maxconventionalcycles=120,xqc) int=ultrafine
#p EmpiricalDispersion=GD3BJ

HIGGOV_1_opt_5_SPE

0 5
Fe         0.00000        0.00000        0.00000
N          1.33498        4.79217        0.43321
C          1.37680        3.96483        1.48788
C          1.04284        2.62803        1.33719
H          0.98024        1.96589        2.20799
C          0.71540        2.92255       -0.89526
H          0.46719        2.47682       -1.86287
C          1.01306        4.25587       -0.75109
H          0.98866        4.92709       -1.61822
C          1.77811        4.52800        2.81736
H          2.81842        4.89454        2.77483
H          1.69626        3.78195        3.62225
H          1.14397        5.39461        3.06748
N          0.70279        2.10005        0.16129
N         -1.14099        0.26508        1.75523
C         -2.05911        0.39419        2.44496
S         -3.35075        0.58575        3.42130
O         -1.66678        0.68734       -1.12577
H         -2.41760        0.58637       -0.51325
O          1.66678       -0.68734        1.12577
H          2.41760       -0.58637        0.51325
N          1.14099       -0.26508       -1.75523
C          2.05911       -0.39419       -2.44496
S          3.35075       -0.58575       -3.42130
N         -1.33498       -4.79217       -0.43321
C         -1.37680       -3.96483       -1.48788
C         -1.04284       -2.62803       -1.33719
H         -0.98024       -1.96589       -2.20799
C         -0.71540       -2.92255        0.89526
H         -0.46719       -2.47682        1.86287
C         -1.01306       -4.25587        0.75109
H         -0.98866       -4.92709        1.61822
C         -1.77811       -4.52800       -2.81736
H         -2.81842       -4.89454       -2.77483
H         -1.69626       -3.78195       -3.62225
H         -1.14397       -5.39461       -3.06748
N         -0.70279       -2.10005       -0.16129
H          1.84450       -0.11378        1.88758
H         -1.84450        0.11378       -1.88758

