%nproc=4
%mem=12gb
#p UB3LYP/def2TZVP IOp(3/76=1000001500) IOp(3/77=0720008500) IOp(3/78=0810010000) scf=(maxconventionalcycles=120,xqc) int=ultrafine
#p EmpiricalDispersion=GD3BJ

IDOJIV_1_opt_6_SPE

0 6
N         -1.43077        0.12784       -0.03644
O         -2.22427       -2.77305       -1.78143
C         -1.76458        1.34584        0.37813
C         -3.77696        1.19351       -0.86829
H         -4.72487        1.62396       -1.20849
C         -3.41395       -0.08740       -1.29113
H         -4.03225       -0.70456       -1.94781
C         -2.21688       -0.59635       -0.82721
C         -1.62600       -1.96302       -1.07208
O         -0.82172        3.04345        1.77353
C         -0.68775        1.92447        1.27093
Fe         0.34761       -0.71272        0.62160
Cl         2.26090       -1.68840        1.34675
O          0.32774        1.16783        1.43704
O         -0.50669       -2.17485       -0.48027
O         -0.64004       -1.31324        2.30546
H         -0.40577       -0.59061        2.91904
H         -0.09064       -2.06843        2.59498
S          2.56361        0.89748       -0.77376
O          1.28563        0.05623       -0.98614
C          2.18826        2.44799       -1.55210
H          3.10496        3.05714       -1.60588
H          1.45051        2.95056       -0.90761
H          1.76572        2.27101       -2.55422
C          3.69138        0.20487       -1.96266
H          3.20338        0.15265       -2.94877
H          3.91198       -0.80829       -1.59334
H          4.61250        0.80827       -1.99453
C         -2.96365        1.91675       -0.01962
H         -3.21539        2.91644        0.34430

