%nproc=4
%mem=12gb
#p UB3LYP/def2TZVP IOp(3/76=1000001500) IOp(3/77=0720008500) IOp(3/78=0810010000) scf=(maxconventionalcycles=120,xqc) int=ultrafine
#p EmpiricalDispersion=GD3BJ

JAVJAS_1_opt_5_SPE

0 5
Fe        -0.45572       -0.38122       -0.17583
O         -2.50632       -0.20471        0.21545
O         -4.56246       -0.18074       -0.64184
O         -1.32959       -0.48783       -2.12157
H         -0.90154       -0.04888       -2.87012
O         -0.51526       -2.50325        0.08004
H         -1.14094       -2.90378       -0.54247
N          1.61063       -0.49347       -0.74584
N         -0.00037        1.71042       -0.09194
C          1.99843       -1.53934       -1.51688
H          1.17870       -2.10866       -1.96436
C          3.30522       -1.90067       -1.69666
H          3.55988       -2.75758       -2.32481
C          4.27804       -1.17381       -1.03083
H          5.33323       -1.45089       -1.12369
C          3.92597       -0.09673       -0.25735
H          4.67769        0.50513        0.26071
C          2.56557        0.24233       -0.16339
C         -1.01310        2.59538       -0.28775
H         -1.90939        2.17037       -0.74544
C         -3.33193       -0.23302       -0.74955
C         -2.74110       -0.28332       -2.14968
H         -2.98181        0.67293       -2.64971
H         -3.22901       -1.08976       -2.72548
C         -0.81572       -2.93816        1.39567
H         -1.89738       -3.13087        1.50427
H         -0.26141       -3.86354        1.62857
O         -0.12548       -0.71173        1.91477
O         -0.48504       -2.15276        3.58683
C         -0.43996       -1.85680        2.38792
N          2.23933        1.37243        0.57529
H          3.01285        1.78402        1.08382
C          1.11345        2.17563        0.48006
C          1.19531        3.48202        0.98887
H          2.10639        3.80581        1.50073
C          0.13917        4.33482        0.80856
H          0.19009        5.35646        1.19808
C         -0.97986        3.89613        0.11885
H         -1.83942        4.54687       -0.05739

