%nproc=4
%mem=12gb
#p UB3LYP/def2TZVP IOp(3/76=1000001500) IOp(3/77=0720008500) IOp(3/78=0810010000) scf=(maxconventionalcycles=120,xqc) int=ultrafine
#p EmpiricalDispersion=GD3BJ

JUXPUN_1_opt_5_SPE

1 5
Fe         0.02626       -0.22308        0.51963
Cl         0.44760        0.40678        2.70084
O         -0.22255       -2.37540        1.15485
C          1.48205       -1.22525       -1.84837
N          1.76105       -1.24266       -0.38394
C          1.96724       -2.60991        0.11990
C          1.12770       -2.84678        1.37148
N         -1.82344        0.84041        0.26255
C         -2.42984        1.57554        1.17428
C          2.90848       -0.37311       -0.05445
C          2.55691        1.08012       -0.28798
N          1.24352        1.38854       -0.29872
C          0.90449        2.66155       -0.50854
C          1.81083        3.66174       -0.68776
C          3.13337        3.36578       -0.64062
C          3.54393        2.07290       -0.43200
H          1.53365       -0.17948       -2.18166
H          2.26533       -1.78094       -2.39890
H          3.03104       -2.80229        0.34497
H          1.69535       -3.33169       -0.66473
H          1.12129       -3.90966        1.66891
H          1.48856       -2.23842        2.21523
H         -1.85322        1.73892        2.09418
H          3.81770       -0.65359       -0.62160
H          3.11744       -0.49852        1.02184
H         -0.17091        2.86945       -0.50183
H          1.46073        4.68406       -0.85449
H          3.88106        4.15678       -0.76303
H          4.60207        1.79959       -0.39836
C         -0.98691       -3.22993        0.27964
C         -1.76908       -2.31157       -0.67371
N         -0.91037       -1.26935       -1.25930
C          0.11023       -1.79266       -2.16390
C         -1.73204       -0.23879       -1.90298
C         -2.47677        0.56302       -0.87778
C         -3.71148        2.11001        0.99775
C         -4.38229        1.77312       -0.11712
C         -3.76155        1.03077       -1.08301
H         -1.68628       -3.84293        0.87322
H         -0.32268       -3.91397       -0.27251
H         -2.56232       -1.80736       -0.10107
H         -2.26273       -2.91492       -1.46162
H         -0.13922       -1.58441       -3.21903
H          0.13196       -2.89032       -2.08507
H         -2.43012       -0.67303       -2.64472
H         -1.05133        0.43657       -2.45081
H         -4.15190        2.72006        1.79071
H         -5.40976        2.11755       -0.27800
H         -4.28401        0.76875       -2.00832

