%nproc=4
%mem=12gb
#p UB3LYP/def2TZVP IOp(3/76=1000001500) IOp(3/77=0720008500) IOp(3/78=0810010000) scf=(maxconventionalcycles=120,xqc) int=ultrafine
#p EmpiricalDispersion=GD3BJ

KIWWUL_1_opt_5_SPE

2 5
C          4.24196       -0.78207        0.95893
C         -4.24196        0.78207        0.95893
H          4.83795       -1.52463        1.49741
H         -4.83795        1.52463        1.49742
C          2.85245       -0.77650        1.06767
C         -2.85245        0.77650        1.06767
C          2.09524       -1.77564        1.90597
C         -2.09524        1.77564        1.90598
H          2.28057       -2.79918        1.52749
H         -2.28057        2.79918        1.52750
H          2.45905       -1.73630        2.94922
H         -2.45905        1.73629        2.94923
C         -0.62983        2.42210       -1.42131
C          0.62983       -2.42210       -1.42132
H         -0.72647        2.98550       -0.48245
H          0.72647       -2.98550       -0.48246
H         -1.59470        1.94590       -1.64481
H          1.59470       -1.94590       -1.64482
N          0.42093        1.39023       -1.26105
N         -0.42093       -1.39022       -1.26106
N          2.10069        0.13110        0.42972
N         -2.10069       -0.13110        0.42972
O          0.69669       -1.47658        1.86405
O         -0.69669        1.47658        1.86406
Fe         0.00000       -0.00000        0.46684
H          0.21395       -2.00096        2.52114
H         -0.21395        2.00096        2.52115
C         -2.67917       -1.05706       -0.36290
C         -4.05282       -1.10261       -0.52864
H         -4.50518       -1.85751       -1.17770
C         -4.84438       -0.17948        0.15569
H         -5.93316       -0.20332        0.04940
C         -1.71916       -2.04091       -0.98611
H         -1.54412       -2.86138       -0.26774
H         -2.14240       -2.49904       -1.89861
C          2.67917        1.05706       -0.36290
C          4.05282        1.10261       -0.52864
H          4.50518        1.85751       -1.17770
C          4.84438        0.17948        0.15569
H          5.93316        0.20332        0.04940
C          1.71916        2.04091       -0.98611
H          1.54412        2.86138       -0.26773
H          2.14240        2.49905       -1.89861
C          0.53298        0.54078       -2.47688
H          1.53414        0.08222       -2.48332
H          0.45754        1.16134       -3.38868
C         -0.53299       -0.54078       -2.47688
H         -1.53414       -0.08221       -2.48332
H         -0.45754       -1.16133       -3.38869
H          0.38448       -3.12581       -2.23798
H         -0.38449        3.12582       -2.23798

