%nproc=4
%mem=12gb
#p UB3LYP/def2TZVP IOp(3/76=1000001500) IOp(3/77=0720008500) IOp(3/78=0810010000) scf=(maxconventionalcycles=120,xqc) int=ultrafine
#p EmpiricalDispersion=GD3BJ

LUJNOU_1_opt_6_SPE

2 6
Fe         0.74940        0.00855       -0.01872
N          1.15280       -1.27693       -1.53737
C          1.27258       -2.74768       -1.26413
H          0.28031       -3.09437       -0.93909
C          2.31865       -3.08661       -0.21184
H          3.33552       -2.80281       -0.53883
C          2.01983       -2.50199        1.15968
H          1.01363       -2.79478        1.49998
N          2.08114       -1.00686        1.16507
H          3.03880       -0.75547        0.89065
C          1.87773       -0.50806        2.55556
H          0.96348       -0.98172        2.94832
H          2.71362       -0.80985        3.21030
C          1.72265        0.99167        2.50676
H          2.65597        1.46622        2.16487
H          1.49398        1.40879        3.50250
N          0.64008        1.31767        1.53401
H         -0.25092        1.06427        1.97693
C          0.58434        2.79366        1.27359
H         -0.36904        2.99589        0.76375
H          0.56626        3.31478        2.24658
C          1.74848        3.30140        0.42721
H          2.72071        3.15250        0.93071
H          1.63908        4.39502        0.33507
C          1.77553        2.71054       -0.97341
H          2.53580        3.22129       -1.59038
H          0.80476        2.84519       -1.47632
N          2.08273        1.24549       -0.96040
H          3.00110        1.15046       -0.50967
C          2.23149        0.73836       -2.35447
S         -1.01904       -1.21183        0.77375
S         -1.04777        0.94689       -1.08559
C         -2.01230       -0.14297       -0.15102
N         -3.32891       -0.13214       -0.12005
C         -4.06898       -1.03271        0.78706
H         -3.51633       -1.08089        1.74032
C         -4.10375        0.82542       -0.93411
H         -3.58437        0.95732       -1.89704
H         -5.07472        0.35271       -1.14812
C         -4.27076        2.15341       -0.20451
H         -3.29372        2.62615       -0.01505
H         -4.86933        2.84533       -0.81871
H         -4.79393        2.02086        0.75682
C          2.34169       -0.76754       -2.28375
H          2.39750       -1.22141       -3.28808
C         -4.25263       -2.41119        0.18869
H         -4.82406       -3.04682        0.88440
H         -4.81257       -2.36663       -0.76009
H          3.10703        1.19128       -2.85106
H          3.25324       -1.06508       -1.74182
H          0.33512       -1.16136       -2.14774
H         -5.03593       -0.54897        0.99404
H          1.51288       -3.25540       -2.21443
H         -3.28405       -2.90144        0.00170
H          2.73895       -2.88472        1.90504
H          2.34784       -4.18495       -0.11475
H          1.33565        1.04049       -2.92138

