%nproc=4
%mem=12gb
#p UB3LYP/def2TZVP IOp(3/76=1000001500) IOp(3/77=0720008500) IOp(3/78=0810010000) scf=(maxconventionalcycles=120,xqc) int=ultrafine
#p EmpiricalDispersion=GD3BJ

LUXKEU_1_opt_6_SPE

0 6
Fe         0.74951        0.01172       -0.00257
C          1.89187        1.56283       -0.15855
N          2.57595        2.49726       -0.20153
C          1.93682       -0.62036        1.37300
N          2.64153       -1.03947        2.18428
C          1.92840       -0.90399       -1.23114
N          2.64869       -1.43854       -1.97440
N         -0.40011       -1.62291        0.24934
H         -0.11515       -2.02587        1.14859
H         -0.06523       -2.28846       -0.45577
N         -0.43553        0.99030        1.31379
H         -0.13783        1.97030        1.26121
H         -0.13580        0.67284        2.24212
N         -0.42091        0.64601       -1.51147
H         -0.11585        0.12139       -2.33841
H         -0.13901        1.61529       -1.69345
C         -1.88419       -1.46390        0.17756
H         -2.34899       -2.45999        0.30181
C         -2.35345       -0.57403        1.32766
H         -1.99602       -0.98008        2.29141
H         -3.45545       -0.60408        1.37019
C         -1.91553        0.87121        1.16311
H         -2.40050        1.47535        1.95265
C         -2.35196        1.41749       -0.19239
H         -1.98595        2.45195       -0.32435
H         -3.45371        1.47892       -0.20227
C         -1.90409        0.55302       -1.35090
H         -2.38128        0.93282       -2.27384
C         -2.30381       -0.90698       -1.17283
H         -1.88672       -1.52069       -1.99132
H         -3.40136       -0.98473       -1.25500

