%nproc=4
%mem=12gb
#p UB3LYP/def2TZVP IOp(3/76=1000001500) IOp(3/77=0720008500) IOp(3/78=0810010000) scf=(maxconventionalcycles=120,xqc) int=ultrafine
#p EmpiricalDispersion=GD3BJ

MAHXOJ_1_opt_5_SPE

0 5
Fe         0.00000        0.00000        0.00000
O          0.69413       -2.09715       -0.62826
O          1.82760       -3.91568       -0.35602
O          1.07508       -2.86224        1.36024
N          1.95057        0.48471        0.69906
N          0.87800        0.65275       -1.76411
H          1.20033       -0.17940       -2.26661
N          1.21196       -2.95954        0.14360
C          2.63882        1.26128       -0.14958
C          3.88900        1.73451        0.16255
H          4.40675        2.37137       -0.56226
C          4.48872        1.40105        1.33605
H          5.49133        1.76979        1.57461
C          3.81651        0.56255        2.22285
H          4.25599        0.24291        3.17050
C          2.54097        0.14770        1.87084
H          1.97108       -0.53029        2.51182
C          1.98134        1.59744       -1.45101
H          1.50756        2.59181       -1.36503
H          2.73156        1.65542       -2.25923
O         -0.69413        2.09715        0.62826
O         -1.82760        3.91568        0.35602
O         -1.07508        2.86224       -1.36024
N         -1.21196        2.95954       -0.14360
N         -1.95057       -0.48471       -0.69906
N         -0.87800       -0.65275        1.76411
H         -1.20033        0.17940        2.26661
C         -2.63882       -1.26128        0.14958
C         -3.88900       -1.73451       -0.16255
H         -4.40675       -2.37137        0.56226
C         -4.48872       -1.40105       -1.33605
H         -5.49133       -1.76979       -1.57461
C         -3.81651       -0.56255       -2.22285
H         -4.25599       -0.24291       -3.17050
C         -2.54097       -0.14770       -1.87084
H         -1.97108        0.53029       -2.51182
C         -1.98134       -1.59744        1.45101
H         -1.50756       -2.59181        1.36503
H         -2.73156       -1.65542        2.25923
H         -0.16643       -1.15904        2.29799
H          0.16643        1.15904       -2.29799

