%nproc=4
%mem=12gb
#p UB3LYP/def2TZVP IOp(3/76=1000001500) IOp(3/77=0720008500) IOp(3/78=0810010000) scf=(maxconventionalcycles=120,xqc) int=ultrafine
#p EmpiricalDispersion=GD3BJ

MAWSIN_1_opt_5_SPE

0 5
Fe         0.00000        0.00000        0.00000
Cl        -0.00000       -0.00000        2.49714
Cl         0.00000       -0.00000       -2.49714
N         -2.52521        1.90083       -1.29289
N          2.52521       -1.90083       -1.29289
N          1.90083        2.52521        1.29289
N         -1.90083       -2.52521        1.29289
O         -2.12174        0.17048        0.08367
O          2.12174       -0.17048        0.08367
O          0.17048        2.12174       -0.08367
O         -0.17048       -2.12174       -0.08367
C          4.90261        0.00000        0.55980
C          0.00000        4.90261       -0.55980
C         -4.35990        0.94834       -0.13612
C          4.35990       -0.94834       -0.13612
C          0.94834        4.35990        0.13612
C         -2.91611        0.98047       -0.44661
C          2.91611       -0.98047       -0.44661
C          0.98047        2.91611        0.44661
C         -0.98047       -2.91611        0.44661
H          5.97561        0.02762        0.77480
H         -0.02762        5.97561       -0.77480
H          4.27973        0.81377        0.94992
H         -0.81377        4.27973       -0.94992
H         -4.96505        1.76747       -0.54653
H          4.96505       -1.76747       -0.54653
H          1.76747        4.96505        0.54653
H         -3.19876        2.44507       -1.81820
H          3.19876       -2.44507       -1.81820
H          2.44507        3.19876        1.81820
H         -1.56717        1.80726       -1.66162
H          1.56717       -1.80726       -1.66162
H          1.80726        1.56717        1.66162
H         -1.80726       -1.56717        1.66162
C         -0.00000       -4.90261       -0.55980
C         -0.94834       -4.35990        0.13612
H          0.02762       -5.97561       -0.77480
H         -1.76747       -4.96505        0.54653
C         -4.90261        0.00000        0.55980
H         -5.97561       -0.02762        0.77480
H         -4.27973       -0.81377        0.94992
H         -2.44507       -3.19876        1.81820
H          0.81377       -4.27973       -0.94992

