%nproc=4
%mem=12gb
#p UB3LYP/def2TZVP IOp(3/76=1000001500) IOp(3/77=0720008500) IOp(3/78=0810010000) scf=(maxconventionalcycles=120,xqc) int=ultrafine
#p EmpiricalDispersion=GD3BJ

MIKJAS_1_opt_5_SPE

0 5
Fe        -0.64819       -0.79113        0.45336
N          1.45273       -1.33662        0.07720
N          0.40225        1.12348        0.33872
C          1.73275        1.03117        0.06227
C         -0.10785        2.32701        0.55448
H         -1.19808        2.34838        0.70540
C          4.13576       -1.73663       -0.56932
H          5.18942       -1.89072       -0.82452
C          3.65193       -0.42736       -0.40902
C          2.28299       -0.28551       -0.09492
C          2.56363        2.15336       -0.05313
C          1.95772       -2.55808       -0.06893
H          1.27935       -3.40036        0.10344
C          3.94708        1.95711       -0.39692
H          4.57541        2.84661       -0.50961
C          4.45547        0.73473       -0.56418
H          5.51031        0.59910       -0.82410
C          3.29732       -2.78211       -0.40674
H          3.64656       -3.81247       -0.52091
C          0.65967        3.50183        0.49412
H          0.17495        4.46433        0.67420
C          1.97799        3.40452        0.18274
H          2.60105        4.30261        0.10461
O         -0.85262       -1.13086       -1.70165
H         -1.73194       -0.53153       -1.85363
O         -0.39561       -0.70712        2.53759
H         -0.61080       -1.58966        2.88428
O         -1.22403       -2.80410        0.80341
H         -2.19872       -2.68945        0.81221
H         -1.15509       -0.14773        2.79422
H         -1.21605       -2.00113       -1.92959
H         -1.06228       -3.35666        0.02120
S         -3.62034        0.41915       -0.44875
O         -2.48183        0.14150        0.43817
O         -4.03542        1.81301       -0.28287
O         -4.72477       -0.46894       -0.13153
O         -3.20289        0.19316       -1.85546

