%nproc=4
%mem=12gb
#p UB3LYP/def2TZVP IOp(3/76=1000001500) IOp(3/77=0720008500) IOp(3/78=0810010000) scf=(maxconventionalcycles=120,xqc) int=ultrafine
#p EmpiricalDispersion=GD3BJ

MOJCAS_1_opt_6_SPE

0 6
Fe        -0.95692       -1.43132       -0.20012
C          4.06937        0.21253        0.16655
C          4.05567        0.17667        1.65627
H          3.05899        0.43066        2.05263
C          1.82124       -0.40576       -0.31281
C          1.45141        0.95520       -0.20096
C          2.48461        1.96815       -0.28956
C         -2.08588        1.25903        0.01286
C         -3.13157        0.33744       -0.03895
C         -4.45172        0.80482        0.05609
H         -5.26643        0.07662        0.01608
C         -4.68254        2.14938        0.20629
H         -5.71628        2.50517        0.28086
C         -3.64455        3.05491        0.26836
H         -3.84437        4.12296        0.39392
C         -2.34195        2.60749        0.17184
H         -1.49416        3.29696        0.21099
N          0.19505        1.45162       -0.12621
N         -0.80720        0.65655       -0.11137
O          3.75641        1.53394       -0.30401
O          2.29594        3.16111       -0.40790
O         -2.84489       -0.96501       -0.19291
O          3.11028       -0.73081       -0.34774
O          1.03492       -1.36517       -0.43533
O         -1.07507       -3.42394       -0.49374
O         -1.06761       -1.34604       -2.28703
H         -1.97744       -1.02626       -2.44327
H         -1.05453       -2.25510       -2.63457
Cl        -0.82532       -1.71475        2.06053
H         -0.22984       -3.79102       -0.16659
H         -1.73173       -3.74507        0.15636
C          5.38012       -0.16073       -0.45070
H          5.66133       -1.18430       -0.15862
H          6.16195        0.53842       -0.11763
H          4.32512       -0.82787        2.01882
H          5.29855       -0.10646       -1.54662
H          4.77902        0.90585        2.05238

