%nproc=4
%mem=12gb
#p UB3LYP/def2TZVP IOp(3/76=1000001500) IOp(3/77=0720008500) IOp(3/78=0810010000) scf=(maxconventionalcycles=120,xqc) int=ultrafine
#p EmpiricalDispersion=GD3BJ

NALSOK_1_opt_6_SPE

0 6
Fe         0.19176       -1.03263       -0.00000
Cl         0.15545       -2.51966        1.71514
Cl         0.15545       -2.51966       -1.71514
O         -1.92427       -0.94103       -0.00000
N         -0.01117        0.69324       -1.31119
N         -0.01117        0.69324        1.31119
C         -0.08524        1.91060       -0.73603
C         -0.08524        1.91060        0.73603
C         -0.03686        0.60798       -2.65372
C         -0.03686        0.60798        2.65372
H          0.03311       -0.41463       -3.04269
H          0.03311       -0.41463        3.04269
C         -0.16804        3.06563       -1.50655
C         -0.16804        3.06563        1.50655
H         -0.21502        4.04481       -1.02687
H         -0.21502        4.04481        1.02687
C         -0.14259        1.72300       -3.46449
C         -0.14259        1.72300        3.46449
H         -0.16377        1.59754       -4.55025
H         -0.16377        1.59754        4.55025
C         -0.20450        2.96334       -2.87941
C         -0.20450        2.96334        2.87941
H         -0.27617        3.86738       -3.49237
H         -0.27617        3.86738        3.49237
C         -2.83302       -2.06938       -0.00000
H         -2.39141       -0.09791       -0.00000
H         -2.62652       -2.67168       -0.89783
H         -2.62652       -2.67168        0.89783
H         -3.87511       -1.71306       -0.00000
Cl         2.51104       -0.67802       -0.00000

