%nproc=4
%mem=12gb
#p UB3LYP/def2TZVP IOp(3/76=1000001500) IOp(3/77=0720008500) IOp(3/78=0810010000) scf=(maxconventionalcycles=120,xqc) int=ultrafine
#p EmpiricalDispersion=GD3BJ

PEWPOW_1_opt_6_SPE

1 6
Fe         0.02630       -0.52868       -0.02330
N         -2.06876       -0.18774       -0.23551
N         -0.36327        1.04232        1.46782
N          0.28290        1.29823       -1.22389
N          2.09750       -0.14695        0.15843
Cl        -0.19205       -2.06469        1.64332
Cl         0.27071       -1.89086       -1.81668
C         -2.81451       -0.63126       -1.25881
C         -4.18218       -0.41526       -1.29812
C         -4.77198        0.23449       -0.26307
C         -4.03100        0.71871        0.79790
C         -2.65629        0.47673        0.78241
C         -1.76671        0.95748        1.88306
C          4.27566       -0.66434        0.98428
C          2.90779       -0.83715        0.97149
H         -2.27079       -1.18573       -2.03175
H         -4.76136       -0.79031       -2.14579
H         -5.85530        0.39787       -0.27256
H         -1.81582        0.21057        2.69553
H          4.89425       -1.26284        1.65708
H          2.40636       -1.57372        1.60948
H          0.23305        0.75791        2.24659
H         -0.25743        1.07850       -2.06213
C          1.68340        1.47829       -1.58285
C          2.62986        0.76294       -0.65981
C          3.98972        0.99918       -0.69538
C          4.81638        0.27091        0.12923
H          1.94740        2.54844       -1.65686
H          1.83255        1.04814       -2.58933
H          4.39298        1.75142       -1.37941
H          5.89803        0.43753        0.10300
C          0.04688        2.35193        0.94411
C         -0.30375        2.44873       -0.51761
H          1.13742        2.44388        1.07858
H         -0.41733        3.17684        1.51491
H          0.05143        3.40409       -0.94419
H         -2.12759        1.91804        2.29117
H         -4.49151        1.26214        1.62651
H         -1.39559        2.41804       -0.65661

