%nproc=4
%mem=12gb
#p UB3LYP/def2TZVP IOp(3/76=1000001500) IOp(3/77=0720008500) IOp(3/78=0810010000) scf=(maxconventionalcycles=120,xqc) int=ultrafine
#p EmpiricalDispersion=GD3BJ

POWSIE_1_opt_6_SPE

0 6
Fe        -0.02578       -0.75184       -0.27999
Cl         0.11517       -2.84040        0.49139
O         -0.22343       -1.28551       -2.17000
H         -0.47236       -2.22894       -2.20818
H         -0.90323       -0.77293       -2.64272
N          2.08389       -0.38335       -0.56210
N         -0.46931        1.22626       -0.91932
N         -2.16692       -0.56489        0.02485
C          2.72392        0.22594        0.45549
N          0.19541        2.30933       -1.31457
N          0.55618        0.19678        1.50591
N         -0.01249        0.66133        2.62343
N         -1.90936        2.87928       -1.06185
C         -2.71550        0.61970       -0.30155
C         -1.74074        1.60229       -0.76977
C          1.83776        0.56821        1.56479
C         -4.07728        0.85570       -0.19867
H         -4.45568        1.84528       -0.46520
C          2.79511       -0.76056       -1.63228
H          2.23305       -1.24400       -2.43625
C         -4.88842       -0.16932        0.23648
H         -5.96765       -0.00941        0.32837
C         -4.33666       -1.38144        0.54851
H         -4.94975       -2.21716        0.89614
C         -2.98076       -1.54844        0.43312
H         -2.48137       -2.49138        0.68076
C          4.08481        0.47525        0.42290
C          4.15352       -0.55265       -1.71900
H          4.68724       -0.88419       -2.61377
C          4.80284        0.06405       -0.68770
H          5.88238        0.23916       -0.73418
N          2.10727        1.23780        2.67312
N          0.92160        1.27729        3.30757
N         -0.67309        3.29043       -1.40703
H          4.54346        0.97796        1.27730

