%nproc=4
%mem=12gb
#p UB3LYP/def2TZVP IOp(3/76=1000001500) IOp(3/77=0720008500) IOp(3/78=0810010000) scf=(maxconventionalcycles=120,xqc) int=ultrafine
#p EmpiricalDispersion=GD3BJ

PUVMIE_1_opt_6_SPE

-1 6
Fe         0.00616        1.28104       -0.09895
Cl         1.33517        2.59781       -1.42288
Cl        -1.13614        2.96069        0.95725
O         -1.18514        0.79886       -1.59556
N         -1.36661       -0.20159        0.78297
N          1.27555       -0.45302       -0.70003
O         -2.85918       -0.43168       -2.38198
N          3.09195       -2.50618       -1.10757
C          2.22785       -0.70015        0.19339
C         -2.25105       -0.65404       -0.09836
N         -3.31609       -2.01251        1.56062
C          3.19136       -1.71806       -0.02543
C         -2.12193       -0.08409       -1.46833
N         -4.14689       -2.06195       -0.58910
C         -3.24582       -1.58577        0.29181
C          1.22999       -1.17809       -1.81187
H          0.46381       -0.91763       -2.54767
C         -1.43243       -0.62372        2.04756
C          2.13578       -2.22344       -1.97540
H          2.06637       -2.86101       -2.86805
C         -2.41984       -1.53628        2.39942
H         -2.47716       -1.88398        3.44102
H         -4.08856       -1.68405       -1.54110
H         -4.87675       -2.67569       -0.25165
O          1.22846        1.00834        1.43837
O          3.03632        0.05402        2.29434
C          2.19520        0.15602        1.41224
N          4.20679       -1.91972        0.81909
H          4.20738       -1.33718        1.66517
H          4.83052       -2.69872        0.65095
H         -0.70049       -0.20918        2.74628

