%nproc=4
%mem=12gb
#p UB3LYP/def2TZVP IOp(3/76=1000001500) IOp(3/77=0720008500) IOp(3/78=0810010000) scf=(maxconventionalcycles=120,xqc) int=ultrafine
#p EmpiricalDispersion=GD3BJ

QENCOC_1_opt_5_SPE

0 5
Fe         0.62380        0.22954        0.03410
C          0.82880        0.34988       -1.75301
O          0.92458        0.40219       -2.88927
C          0.90411        2.01831        0.40246
C          2.38309       -0.21760        0.33444
C          0.20703       -0.21346        1.76995
O          0.09610       -0.51901        2.85813
C         -1.30457        0.72376       -0.40154
O         -1.62530        1.52303       -1.24366
C         -2.47650        0.05115        0.35289
O         -2.39923       -0.11684        1.54609
C          0.06184       -1.70267       -0.38424
O         -1.09871       -1.99532       -0.52707
C         -3.70394       -0.22288       -0.43466
C          1.11646       -2.74645       -0.53700
H         -4.00995        0.68365       -0.98196
H         -3.47606       -0.99613       -1.18784
H         -4.50509       -0.57166        0.23184
H          1.85204       -2.44444       -1.30215
H          1.67474       -2.86159        0.40843
H          0.66164       -3.71127       -0.81440
O          1.04876        3.12799        0.61060
O          3.48955       -0.46038        0.47815

