%nproc=4
%mem=12gb
#p UB3LYP/def2TZVP IOp(3/76=1000001500) IOp(3/77=0720008500) IOp(3/78=0810010000) scf=(maxconventionalcycles=120,xqc) int=ultrafine
#p EmpiricalDispersion=GD3BJ

RONXEX_1_opt_6_SPE

1 6
Fe        -0.00001        1.08298       -0.00015
Cl        -1.67488        2.63350        0.17464
Cl         1.67485        2.63344       -0.17558
N         -1.40466       -0.46135        0.16136
N          1.40465       -0.46140       -0.16104
C         -2.16244       -0.73321       -0.91016
C          2.16244       -0.73282        0.91059
C         -3.22056       -1.61871       -0.81717
C          3.22057       -1.61835        0.81795
C         -1.59002       -1.07800        1.32533
C          1.59002       -1.07852       -1.32476
N          0.30493        0.37820        2.04945
N         -0.30495        0.37737       -2.04947
C         -1.74259        0.00997       -2.15315
C          1.74258        0.01086        2.15328
H          0.10203        1.18201        2.64851
H         -0.10205        1.18093       -2.64887
H         -3.84323       -1.83304       -1.68992
H         -2.31290        0.95579       -2.19182
H          2.31286        0.95671        2.19156
C         -3.46532       -2.22527        0.40870
C         -2.63928       -1.97866        1.48622
H         -4.30572       -2.91844        0.51307
H         -2.80079       -2.47206        2.44868
C          3.46546       -2.22540       -0.40934
C          2.63929       -1.97924       -1.48528
H          2.80031       -2.47264       -2.44786
C         -0.58738       -0.77020        2.39502
H         -1.10067       -0.57574        3.35235
H          0.03425       -1.66767        2.55788
C          0.58737       -0.77116       -2.39458
H          1.10069       -0.57708       -3.35197
H         -0.03420       -1.66874       -2.55711
H          1.96175       -0.56531        3.06889
H         -1.96176       -0.56658       -3.06852
H          3.84352       -1.83265        1.69048
H          4.30606       -2.91834       -0.51353

