%nproc=4
%mem=12gb
#p UB3LYP/def2TZVP IOp(3/76=1000001500) IOp(3/77=0720008500) IOp(3/78=0810010000) scf=(maxconventionalcycles=120,xqc) int=ultrafine
#p EmpiricalDispersion=GD3BJ

TAXQUH_1_opt_5_SPE

0 5
Fe        -0.00000       -0.00000       -0.00000
O         -1.38043        0.63576        1.37859
O          1.38043       -0.63576       -1.37859
O         -1.49904       -0.00105       -1.37694
O          1.49904        0.00105        1.37694
C         -3.31397        1.59773        2.33679
C          3.31397       -1.59773       -2.33679
H         -3.26286        0.89886        3.18964
H          3.26286       -0.89886       -3.18964
H         -2.80773        2.52397        2.66247
H          2.80773       -2.52397       -2.66247
C         -2.57606        1.01692        1.16274
C          2.57606       -1.01692       -1.16274
C         -3.23173        0.91526       -0.05905
C          3.23173       -0.91526        0.05905
H         -4.26899        1.25686       -0.09985
H          4.26899       -1.25686        0.09985
C         -2.68707        0.40057       -1.24180
C          2.68707       -0.40057        1.24180
C         -3.55690        0.32354       -2.46662
C          3.55690       -0.32354        2.46662
H         -3.07737        0.87727       -3.29262
H          3.07737       -0.87727        3.29262
H         -4.56886        0.72103       -2.30105
H          4.56886       -0.72103        2.30105
H         -3.63201       -0.72708       -2.79963
H          3.63201        0.72708        2.79963
O          0.43783        2.07958       -0.59665
O         -0.43783       -2.07958        0.59665
H          0.47476        1.93601       -1.55696
H         -0.47476       -1.93601        1.55696
C          1.65244        2.69237       -0.15806
C         -1.65244       -2.69237        0.15806
H          2.51834        2.08355       -0.48135
H         -2.51834       -2.08355        0.48135
H          1.61595        2.63298        0.94058
H         -1.61595       -2.63298       -0.94058
C         -1.76930       -4.11840        0.62891
H         -2.68817       -4.57978        0.22778
H         -0.90520       -4.71604        0.29320
H         -1.82067       -4.18082        1.73137
C          1.76930        4.11840       -0.62891
H          2.68817        4.57978       -0.22778
H          0.90520        4.71604       -0.29320
H          1.82067        4.18082       -1.73137
H          4.36639       -1.82475       -2.11208
H         -4.36639        1.82475        2.11208

