%nproc=4
%mem=12gb
#p UB3LYP/def2TZVP IOp(3/76=1000001500) IOp(3/77=0720008500) IOp(3/78=0810010000) scf=(maxconventionalcycles=120,xqc) int=ultrafine
#p EmpiricalDispersion=GD3BJ

TUBWIW_1_opt_6_SPE

0 6
Fe         0.02910       -0.29229       -0.10569
N         -0.34247        1.75277        0.43247
N          2.08058       -0.38489        0.47513
N         -2.00918       -0.71270       -0.46221
O          0.55288       -2.02015       -0.89350
O          2.28487       -3.29957       -1.47459
O         -0.54522       -0.94648        1.67117
O         -2.11099       -2.07502        2.78189
C         -0.92770        2.20845        1.54740
C         -1.19642        3.59762        1.69340
C         -0.80969        4.45999        0.68218
C          2.82220        0.44994        1.22059
C          4.18136        0.31002        1.38304
C          4.80993       -0.74952        0.73542
C          4.05773       -1.61848       -0.02029
C          2.72082       -1.41440       -0.12190
C          1.81160       -2.33049       -0.89844
C         -4.60552       -1.60899       -0.65851
C         -3.88506       -1.81874        0.51202
C         -2.58827       -1.34677        0.57013
C         -1.72237       -1.49668        1.79307
H         -1.17217        1.46497        2.31265
H         -1.68376        3.95682        2.60352
H         -0.99425        5.53480        0.78047
H          2.27838        1.27353        1.69629
H          4.73618        1.02027        2.00068
H          5.89146       -0.88959        0.83090
H          4.48037       -2.47786       -0.54743
H         -4.28511       -2.34194        1.38467
C         -2.71680       -0.50087       -1.57912
H         -2.18795        0.01274       -2.38883
O          0.50961        0.64249       -1.75396
O          1.09898        2.60602       -2.65653
C         -0.20637        3.95598       -0.45417
C         -0.00676        2.60493       -0.55044
C          0.59869        1.94816       -1.78505
H          0.11712        4.58249       -1.28995
C         -4.02970       -0.92797       -1.69906
H         -4.57256       -0.73782       -2.62889
H         -5.63384       -1.97650       -0.74096

