%nproc=4
%mem=12gb
#p UB3LYP/def2TZVP IOp(3/76=1000001500) IOp(3/77=0720008500) IOp(3/78=0810010000) scf=(maxconventionalcycles=120,xqc) int=ultrafine
#p EmpiricalDispersion=GD3BJ

WITQEV_1_opt_6_SPE

3 6
Fe         0.00099       -0.00096       -0.00502
O          0.30038        1.61122        1.12855
O         -1.54564       -0.54517        1.12855
O          1.24486       -1.06567        1.12855
C          1.29680        2.21315        1.61227
C         -2.56513        0.01679        1.61227
C          1.26794       -2.22956        1.61227
N          1.17111        3.48611        1.94822
N         -3.60471       -0.72854        1.94822
N          2.43320       -2.75719        1.94822
H          1.88844        3.99543        2.45885
H         -4.40459       -0.36190        2.45856
H          2.51564       -3.63300        2.45899
H          0.28775        3.96204        1.79636
H         -3.57509       -1.73155        1.79661
H          3.28702       -2.23015        1.79619
N          2.46309        1.60973        1.77397
N         -2.62570        1.32853        1.77397
N          0.16222       -2.93789        1.77397
H          3.26507        2.06495        2.20072
H         -3.42099        1.79556        2.20046
H          0.15542       -3.86006        2.20064
H          2.48380        0.60035        1.62954
H         -1.76195        1.85114        1.62917
H         -0.72224       -2.45088        1.62965
O         -1.10128        1.20511       -1.14088
O         -0.49311       -1.55599       -1.14088
O          1.59399        0.35125       -1.14088
C         -2.26919        1.19211       -1.61345
C          0.10211       -2.56093       -1.61345
C          2.16669        1.36920       -1.61345
N          3.44390        1.29978       -1.93825
N         -2.94168        0.06224       -1.76679
H         -2.42298       -0.80512       -1.62969
H         -3.86677        0.02383       -2.18529
N          1.41685       -2.57838       -1.76679
H          1.90847       -1.69524       -1.63062
H          1.91261       -3.36034       -2.18535
N          1.52443        2.51652       -1.76679
H          0.51398        2.50089       -1.62904
H          1.95355        3.33691       -2.18540
N         -2.84768        2.33292       -1.93825
N         -0.59662       -3.63231       -1.93825
H          3.92475        2.04067       -2.44271
H          3.95429        0.43365       -1.79811
H         -3.72980        2.37896       -2.44258
H         -0.19549       -4.41916       -2.44284
H         -2.35265        3.20794       -1.79823
H         -1.60188       -3.64125       -1.79786

