%nproc=4
%mem=12gb
#p UB3LYP/def2TZVP IOp(3/76=1000001500) IOp(3/77=0720008500) IOp(3/78=0810010000) scf=(maxconventionalcycles=120,xqc) int=ultrafine
#p EmpiricalDispersion=GD3BJ

XOVQIK_1_opt_5_SPE

2 5
Fe         0.00141        1.49039        0.03040
O          1.48827        2.98760        0.00691
H          1.85373        3.28353        0.85897
H          1.39285        3.78805       -0.53702
O         -1.52573        2.93107        0.02357
H         -1.78838        3.29942       -0.83791
H         -1.60657        3.65376        0.66909
O          0.02307        1.67787       -2.05197
H         -0.51563        1.02577       -2.53454
O          0.03508        1.53313        2.10914
H         -0.81942        1.40302        2.55724
H          0.63222        0.87549        2.50806
N         -1.33755       -0.22640       -0.00136
N          1.32807       -0.23211        0.00644
C         -2.67255       -0.15659       -0.03448
H         -3.09460        0.85461       -0.05269
C         -3.50974       -1.26431       -0.04470
C         -2.88072       -2.50629        0.02601
H         -3.48573       -3.41917        0.04784
C         -1.51137       -2.60046        0.04091
H         -1.03512       -3.58185        0.07617
C         -0.74020       -1.44120        0.02304
C          0.73625       -1.44080        0.02394
C          1.50468       -2.59621        0.02249
H          1.02875       -3.57823        0.03617
C         -4.99324       -1.09174       -0.10083
H         -5.28402       -0.03066       -0.10067
H         -5.48173       -1.58413        0.75789
H         -5.40831       -1.56069       -1.01040
C          2.88374       -2.50520        0.00282
H          3.48449       -3.42097        0.00263
C          3.49908       -1.27253       -0.02890
C          2.66307       -0.16728       -0.02454
H          3.08888        0.84259       -0.05136
C          4.99285       -1.10006       -0.09273
H          5.39625       -1.55273       -1.01525
H          5.28473       -0.03947       -0.07430
H          5.48451       -1.60964        0.75361
H          0.90637        1.62932       -2.45888

