%nproc=4
%mem=12gb
#p UB3LYP/def2TZVP IOp(3/76=1000001500) IOp(3/77=0720008500) IOp(3/78=0810010000) scf=(maxconventionalcycles=120,xqc) int=ultrafine
#p EmpiricalDispersion=GD3BJ

XUFYIG_1_opt_5_SPE

0 5
Fe         0.42882        0.66048        0.18165
Cl         0.01658        1.07485        2.56334
Cl         0.60594        2.90902       -0.54595
N          2.50901       -0.01557        0.57578
H          2.75367        0.59962        1.35429
N         -1.70495        0.29349       -0.13562
C          0.28811       -1.27130       -2.12234
H          0.61466       -1.76671       -3.05962
H         -0.75570       -0.95336       -2.26145
N          1.08211       -0.05867       -1.81535
N          0.21205       -1.61204        0.36806
C         -2.15107       -0.92729        0.21745
C          2.61216       -1.44681        0.96273
H          3.30266       -1.57943        1.81447
H          3.05695       -2.00409        0.12242
C          2.55637       -0.29668       -1.86608
H          2.73134       -1.38343       -1.89743
C         -1.14426       -1.82746        0.89863
H         -1.11914       -1.49114        1.95227
H         -1.45430       -2.89008        0.85773
C          3.25609        0.32595       -0.66551
H          4.31728        0.00526       -0.63277
H          3.21244        1.42397       -0.75502
C          0.38979       -2.26519       -0.96329
H         -0.35345       -3.07168       -1.10180
H          1.37603       -2.75375       -0.98239
C         -2.60074        1.17337       -0.61948
H         -2.17579        2.15218       -0.87739
C          1.25006       -2.02171        1.33845
H          1.30748       -3.12426        1.45233
H          0.94979       -1.56928        2.29839
C         -4.38545       -0.39108       -0.43121
H         -5.43967       -0.66261       -0.55021
C         -3.94284        0.87271       -0.76928
H         -4.62618        1.63333       -1.15742
C         -3.48301       -1.30248        0.06479
H         -3.79318       -2.31093        0.35525
H          0.81418        0.75560       -2.37230
H          2.98999        0.10980       -2.79715

