%nproc=4
%mem=12gb
#p UB3LYP/def2TZVP IOp(3/76=1000001500) IOp(3/77=0720008500) IOp(3/78=0810010000) scf=(maxconventionalcycles=120,xqc) int=ultrafine
#p EmpiricalDispersion=GD3BJ

YEBTUX_1_opt_5_SPE

0 5
Fe         0.00974        0.38829       -0.08876
O         -2.15193        0.44492        0.12385
O         -2.71338       -1.68605       -0.26440
O          2.17124        0.47702       -0.23713
O          2.67092       -1.66168        0.16407
O         -0.10427        0.77148       -2.15370
H          0.00082       -0.12787       -2.51546
H         -1.03923        0.99623       -2.30665
O          0.15060        0.08954        1.98800
H          0.84069       -0.58130        2.14009
H         -0.68890       -0.32038        2.26030
O          0.00116        2.46400        0.23059
H          0.95042        2.68470        0.25289
H         -0.33281        2.64438        1.12478
O          0.00483       -1.65439       -0.52841
H          0.83767       -2.05211       -0.17126
H         -0.87079       -2.04675       -0.28840
C         -2.96288       -0.51460       -0.04985
C         -4.44681       -0.08586        0.10176
C          2.94049       -0.47212       -0.02631
C          4.41894       -0.09230        0.04726
F         -4.75193        0.87355       -0.72726
F         -4.69920        0.35481        1.33036
F          4.76696        0.17698        1.28704
F         -5.26901       -1.09867       -0.12408
F          4.73099        0.95019       -0.66134
F          5.23522       -1.06375       -0.35012

