%nproc=4
%mem=12gb
#p UB3LYP/def2TZVP IOp(3/76=1000001500) IOp(3/77=0720008500) IOp(3/78=0810010000) scf=(maxconventionalcycles=120,xqc) int=ultrafine
#p EmpiricalDispersion=GD3BJ

YEYPEY_1_opt_5_SPE

0 5
C          3.03409        0.01499       -0.00434
C          4.36145        0.40970       -0.00562
H          5.14151       -0.36050        0.00119
N          2.04446        0.92089       -0.01361
N          4.72473        1.68680       -0.02609
C          2.61560       -1.38519        0.02005
N          3.39497       -2.45502       -0.01553
N          1.32447       -1.71909        0.07631
C          3.73899        2.57709       -0.02758
C          2.40921        2.20318       -0.02798
H          1.59681        2.94172       -0.04086
N          1.31562       -3.06063        0.07027
N          2.55449       -3.49954        0.01332
C         -3.03412       -0.01496        0.00443
C         -4.36148       -0.40967        0.00571
H         -5.14153        0.36054       -0.00119
Fe        -0.00001        0.00002        0.00005
N         -2.04449       -0.92085        0.01370
N         -4.72476       -1.68677        0.02619
O         -0.04780        0.14095        2.06884
H         -0.00903        1.07784        2.32563
C         -2.61520        1.38473       -0.02150
N         -3.39500        2.45505        0.01562
N         -1.32450        1.71913       -0.07621
H          0.72914       -0.28996        2.46249
O          0.04777       -0.14091       -2.06874
H          0.00929       -1.07784       -2.32544
H         -0.72927        0.28972       -2.46249
N         -1.31565        3.06067       -0.07017
N         -2.55452        3.49958       -0.01322
C         -3.73902       -2.57706        0.02767
C         -2.40924       -2.20315        0.02808
H         -1.59684       -2.94169        0.04097
H          4.00762        3.64056       -0.03948
H         -4.00765       -3.64053        0.03946

