%nproc=4
%mem=12gb
#p UB3LYP/def2TZVP IOp(3/76=1000001500) IOp(3/77=0720008500) IOp(3/78=0810010000) scf=(maxconventionalcycles=120,xqc) int=ultrafine
#p EmpiricalDispersion=GD3BJ

YOYVEQ_1_opt_5_SPE

2 5
Fe        -0.18196       -0.12509       -0.03261
O         -0.41815       -2.13556        2.24558
H          0.02263       -2.62293        1.52995
O          0.85250        0.91079       -2.66304
H          1.31664        0.07711       -2.48324
O         -1.14721       -2.42592       -1.66707
H         -0.18042       -2.41433       -1.75948
N         -0.74636       -0.90573        1.67320
N         -0.01901        1.05216       -1.57309
N         -1.43817       -1.22972       -0.98255
N         -1.77224        1.01663        0.31116
N          1.33561       -1.28895       -0.33819
C         -1.86277        1.14533        1.80364
H         -1.14699        1.91507        2.13746
H         -2.86806        1.47051        2.12574
C         -1.49103       -0.17114        2.41634
C         -1.95345       -0.49948        3.78942
H         -1.24264       -1.15986        4.30624
H         -2.92343       -1.03127        3.74660
H         -2.10985        0.41935        4.37631
C         -1.57356        2.32874       -0.37217
H         -1.06928        3.02358        0.32142
H         -2.53341        2.79793       -0.65017
C         -0.68710        2.14227       -1.56972
C         -0.59119        3.23580       -2.57267
H          0.41993        3.29310       -3.00220
H         -0.86704        4.20276       -2.12421
H         -1.28910        3.04644       -3.41025
C         -2.99968        0.30585       -0.20228
H         -3.66020        0.04639        0.64399
H         -3.59186        0.98803       -0.83725
C         -2.69185       -0.93660       -0.96610
C         -3.76813       -1.70569       -1.61194
H         -3.49869       -1.94181       -2.65552
H         -4.72457       -1.16367       -1.59197
H         -3.90499       -2.67835       -1.10428
C          2.25868       -1.94865       -0.39066
C          3.42741       -2.82769       -0.45637
H          3.09226       -3.79247       -0.88014
H          3.74172       -3.03324        0.58372
C          4.55427       -2.21372       -1.27522
H          4.24828       -2.03561       -2.31842
H          5.41204       -2.90346       -1.29132
H          4.89676       -1.26086       -0.84047
N          1.09052        1.04445        0.89650
C          2.00780        1.55732        1.34692
C          3.24379        2.12588        1.88372
H          3.52456        1.51684        2.76303
H          3.01581        3.13636        2.26981
C          4.34216        2.16328        0.84532
H          5.25541        2.58797        1.29013
H          4.06598        2.78985       -0.01761
H          4.58744        1.15340        0.47751

