%nproc=4
%mem=12gb
#p UB3LYP/def2TZVP IOp(3/76=1000001500) IOp(3/77=0720008500) IOp(3/78=0810010000) scf=(maxconventionalcycles=120,xqc) int=ultrafine
#p EmpiricalDispersion=GD3BJ

ZIBTIQ_1_opt_6_SPE

1 6
Fe         1.13572       -0.02229        0.41175
Cl         3.41275        0.03896        0.22898
Cl         1.09371       -0.19414        2.67154
N          1.07546        0.03556       -1.78906
N          0.63412       -2.09073       -0.06651
N         -0.95791        0.01264        0.30356
N          0.67602        2.08327        0.09394
C          0.43682       -1.17632       -2.33554
H         -0.65610       -1.05438       -2.26534
H          0.68279       -1.32665       -3.40261
C          0.92048       -2.35167       -1.50220
H          2.01417       -2.44911       -1.60224
H          0.46104       -3.29898       -1.83561
C         -0.77876       -2.37676        0.30505
H         -1.19202       -3.20759       -0.29218
H         -0.77755       -2.69110        1.36409
C         -1.63309       -1.14400        0.21401
C         -1.61298        1.18425        0.30314
C         -2.98860        1.24692        0.20727
C         -3.01023       -1.17592        0.10582
C         -0.72995        2.39776        0.46900
C          1.00150        2.41004       -1.32287
H          0.58420        3.39150       -1.60977
H          2.10023        2.47083       -1.39041
C          0.49621        1.31309       -2.23785
H          0.75878        1.53763       -3.28813
H         -0.60197        1.22820       -2.19115
H          1.31788        2.58204        0.71542
H          1.25950       -2.64716        0.52203
H          2.09326        0.01973       -1.93663
O         -5.03421        0.11663       -0.00887
H         -5.43566       -0.76647       -0.05181
C         -3.69184        0.04162        0.10320
H         -0.73451        2.66582        1.54018
H         -1.11552        3.26333       -0.09619
H         -3.54402       -2.12754        0.02615
H         -3.53064        2.19518        0.20300

