31
BOFFIL.log	Energy: -1455583.1605162
Fe         0.00000        0.00000        0.00000
O          1.43210        0.85329       -1.28980
O          2.03678        2.70880       -2.35414
O          1.29474        0.31802        1.67674
N          0.58487       -2.04140        0.01219
N          1.19898       -4.73563        0.56061
C         -0.12762       -2.77934        0.94349
C          0.22000       -4.09511        1.14051
C          1.89126       -3.93050       -0.27522
C          1.60072       -2.66848       -0.59920
C          1.26375        2.06939       -1.64221
H         -0.40616       -4.64784        1.85628
H          2.75338       -4.40320       -0.76699
H          2.18566       -2.08458       -1.31816
H          1.95081        0.94863        1.33145
H          0.78081        0.79713        2.34713
N         -0.58487        2.04140       -0.01219
N         -1.19898        4.73563       -0.56061
C          0.12762        2.77934       -0.94349
C         -0.22000        4.09511       -1.14051
C         -1.89126        3.93050        0.27522
C         -1.60072        2.66848        0.59920
H         -2.75338        4.40320        0.76699
H         -2.18566        2.08458        1.31816
O         -1.29474       -0.31802       -1.67674
H         -1.95081       -0.94863       -1.33145
H         -0.78081       -0.79713       -2.34713
O         -1.43210       -0.85329        1.28980
O         -2.03678       -2.70880        2.35414
C         -1.26375       -2.06939        1.64221
H          0.40616        4.64784       -1.85628
