32
CAXLIW.log	Energy: -2121097.9210721
Fe         0.79355        0.12564       -0.75161
Cl        -0.19809        0.59115       -2.80103
Cl         2.22700       -1.49804       -1.54779
Cl         2.28168        1.86993       -0.76396
N         -0.81201       -1.26683       -0.32106
C         -0.74391       -2.58639       -0.52627
N         -0.79169        1.32657        0.14806
C         -1.79731        3.40550        0.70807
C         -0.71274        2.65491        0.33791
N          1.43814       -0.90004        3.38005
N          2.65585       -0.36366        3.17334
C          2.59385       -0.03046        1.90019
N          1.41112       -0.31843        1.30693
C          0.73156       -0.88058        2.27658
H          0.23044       -2.93257       -0.89682
H         -1.68511        4.48637        0.83119
H          0.27905        3.07825        0.13512
H          1.18541       -1.27285        4.29111
H          3.39978        0.46311        1.35615
H         -0.28406       -1.26881        2.20580
C         -1.97209       -0.75101        0.13416
C         -3.06337       -1.54726        0.37898
C         -2.98925       -2.89192        0.12059
C         -1.81680       -3.41455       -0.32045
C         -1.96543        0.71313        0.36096
C         -3.08005        1.42937        0.74282
C         -2.99563        2.78449        0.90696
H         -3.99122       -1.11021        0.75252
H         -3.86224       -3.53109        0.28669
H         -4.03399        0.92068        0.89603
H         -3.88348        3.35780        1.19226
H         -1.70961       -4.48381       -0.52525
