35
CIDZFE.log	Energy: -1935670.8323934
Fe        -0.05859       -0.13193        0.68953
Cl         0.44736       -1.87998        2.08030
Cl        -0.61880        1.33961        2.40185
N          1.82652        0.80893        0.54365
C          2.49271        1.87392        1.10790
N         -2.00325       -0.83717        0.28805
C         -2.72463       -0.06182       -0.51185
N         -3.98523       -0.50154       -0.60416
C         -2.86299       -1.82778        0.72351
C         -4.08564       -1.62198        0.18144
H         -4.74115       -0.09330       -1.14472
H          1.99308        2.50327        1.84361
H         -2.51541       -2.59246        1.41712
H         -5.01611       -2.17730        0.28221
N         -0.78409        1.25049       -0.79138
C         -2.07013        1.08779       -1.07507
N         -2.52866        2.10234       -1.81874
C         -0.41135        2.42308       -1.39893
C         -1.48294        2.95449       -2.03733
H         -3.47538        2.23405       -2.16071
H          0.60005        2.81681       -1.31524
N          0.95921       -1.25034       -0.92097
C          2.69972        0.22847       -0.27498
C          2.24280       -0.90637       -1.02871
N          3.87406        0.86386       -0.24296
C          3.75425        1.90977        0.63279
N          2.89558       -1.75595       -1.83631
C          0.80386       -2.35328       -1.70536
C          1.99603       -2.67839       -2.28031
H          4.71024        0.63379       -0.77068
H          3.88367       -1.74057       -2.06920
H          4.58051        2.58570        0.84422
H         -0.15302       -2.86599       -1.79264
H          2.27211       -3.48590       -2.95562
H         -1.59007        3.86644       -2.62161
