29
DEKHIK.log	Energy: -2064947.3691747
Fe         1.43783        0.01720       -0.05084
Cl         1.23697       -0.01311        2.27743
Cl         2.92867       -1.70674       -0.18580
N         -0.27877       -1.33049       -0.17122
C         -0.26285       -2.67228       -0.17889
H          0.73870       -3.11675       -0.20444
C         -1.41069       -3.42391       -0.10739
H         -1.33182       -4.51449       -0.09629
C         -2.64221       -2.80456       -0.06219
H         -3.56352       -3.39323       -0.00260
O          1.21205       -0.04308       -2.20535
H          1.80166        0.72393       -2.36291
H          1.81808       -0.80965       -2.29582
C         -2.70311       -1.41856       -0.06601
C         -1.47370       -0.73441       -0.12271
C         -3.91892       -0.68269        0.04705
H         -4.85571       -1.24172        0.13259
N         -0.27483        1.34694       -0.14172
C         -0.26303        2.67759       -0.13127
H          0.73682        3.12708       -0.13946
C         -1.48330        0.71025       -0.10168
C         -1.42698        3.44147       -0.10779
H         -1.34722        4.53160       -0.10685
C         -2.62394        2.81707       -0.06248
H         -3.55393        3.39562       -0.02027
C         -2.69529        1.43640       -0.06072
C         -3.91288        0.64519        0.06403
H         -4.85397        1.19925        0.15620
Cl         2.89952        1.71582       -0.24249
