55
DUBFOY.log	Energy: -1470323.3693449
Fe        -0.00000       -0.00000        0.21623
N          0.32440       -1.44168        1.50278
N         -0.32440        1.44168        1.50278
C          0.58833       -2.41431        2.05765
C         -0.58833        2.41431        2.05765
B          1.02064       -3.81356        2.70460
B         -1.02064        3.81356        2.70460
H          1.57966       -3.60186        3.77478
H         -1.57966        3.60186        3.77478
H          0.00532       -4.49752        2.83387
H         -0.00533        4.49752        2.83387
H          1.79229       -4.31708        1.87682
H         -1.79229        4.31708        1.87682
N          1.98259        0.36511        0.18024
C          2.74134       -0.56167       -0.46362
C          4.11934       -0.46419       -0.55803
H          4.68108       -1.23729       -1.08977
C          1.96676       -1.72775       -1.03396
H          1.92023       -2.52937       -0.27730
C          4.75636        0.61745        0.02392
H          5.84397        0.72153       -0.03721
C          3.99039        1.56835        0.70492
H          4.45091        2.43050        1.19350
C          2.61409        1.40315        0.76064
H          1.97214        2.10984        1.29246
N         -1.98259       -0.36511        0.18024
C         -2.74134        0.56167       -0.46362
C         -4.11934        0.46419       -0.55803
H         -4.68108        1.23729       -1.08977
C         -1.96676        1.72775       -1.03396
H         -1.92023        2.52937       -0.27730
C         -4.75636       -0.61745        0.02392
H         -5.84397       -0.72153       -0.03721
C         -3.99039       -1.56835        0.70492
H         -4.45091       -2.43050        1.19350
C         -2.61409       -1.40315        0.76064
H         -1.97214       -2.10984        1.29246
N         -0.56744        1.27996       -1.31410
N          0.56744       -1.27996       -1.31410
C         -0.58955        0.45473       -2.57861
C          0.58955       -0.45473       -2.57861
H         -0.60570        1.11234       -3.46705
H          0.60570       -1.11235       -3.46705
H         -1.52360       -0.12827       -2.58675
H          1.52360        0.12827       -2.58675
C          0.27345        2.47878       -1.53543
C         -0.27345       -2.47878       -1.53543
H          0.33021        3.05211       -0.59941
H         -0.33021       -3.05211       -0.59941
H          1.29046        2.17683       -1.82143
H         -1.29046       -2.17683       -1.82143
H         -0.15121        3.11860       -2.33116
H          0.15121       -3.11860       -2.33116
H          2.44584       -2.13636       -1.94260
H         -2.44584        2.13636       -1.94260
