38
ECAJOH.log	Energy: -1436702.7381995
Fe         3.55213       -0.17778       -0.00019
O          1.81865        1.05770        0.06298
O          4.26670        1.12056        1.50390
O          2.92718       -1.46994        1.57985
O          4.18084        1.17692       -1.49561
O          2.89413       -1.41313       -1.58791
O          5.40062       -1.18272       -0.04258
N          0.50966        0.80256        0.00861
H          0.78577       -1.22362        0.31948
H         -1.65247       -1.71451        0.22719
H          3.56777        1.77785        1.68319
H          4.58070        0.80421        2.36770
H          3.50353       -2.19397        1.88066
H          2.45090       -1.13202        2.35573
H          5.01492        1.66378       -1.37526
H          2.15719       -2.04360       -1.53905
H          5.55126       -1.77104       -0.80379
H          6.24693       -0.73728        0.13357
C          0.03977       -0.44974        0.13641
C         -1.31315       -0.68647        0.08955
C         -2.22068        0.35928       -0.06906
C         -0.32755        1.83895       -0.15257
H         -2.32610        2.50838       -0.34109
C         -1.69053        1.63321       -0.19471
O         -7.71286       -0.63843        0.11475
N         -6.40280       -0.38681        0.04859
H         -4.28422        2.16605        0.29112
H         -6.72069        1.62199        0.36878
C         -3.68582        0.10572       -0.06358
C         -4.59656        1.13077        0.13706
C         -5.94650        0.87264        0.19533
H         -6.03248       -2.36613       -0.31130
H         -3.57130       -2.03049       -0.44546
C         -5.55897       -1.39173       -0.17878
C         -4.20654       -1.16596       -0.24028
H          3.47693        1.85276       -1.54153
H          2.83662       -0.97424       -2.45458
H          0.14858        2.81632       -0.25010
