32
EYIFOH.log	Energy: -1454311.4679049
Fe        -0.00623       -0.62155        0.05399
N          0.27480       -0.82314        3.12890
N         -0.10253       -0.55192       -3.02568
N          0.08707       -3.68844       -0.10714
N         -1.94808       -0.38973        0.08880
N         -0.02103        1.27087        0.11024
N          1.93428       -0.36856       -0.03103
C          0.13457       -0.78138        1.99376
C         -0.07982       -0.63036       -1.89153
C          0.02609       -2.55720       -0.02724
C         -2.33717        0.89626       -0.00758
C          1.19111        1.90251        0.13481
C          2.29579        0.92238        0.04427
C          3.61857        1.29976       -0.00242
C          4.58357        0.33772       -0.17111
C          4.21465       -0.96574       -0.26438
C          2.87111       -1.30338       -0.17363
H          3.84150        2.36754        0.07236
H          5.63980        0.62341       -0.22975
H          4.95130       -1.76326       -0.39963
H          2.51250       -2.33573       -0.22671
O         -1.44921        3.08373       -0.08802
C         -1.23925        1.89372        0.00679
C         -3.66203        1.25138       -0.10927
H         -3.88956        2.31740       -0.19515
C         -2.89448       -1.33090        0.12387
C         -4.24075       -1.02413        0.02169
C         -4.61490        0.27436       -0.11242
H         -2.53229       -2.36013        0.20986
H         -4.97194       -1.83740        0.04046
O          1.38806        3.08567        0.21184
H         -5.67399        0.53972       -0.20824
