48
FOLDIT.log	Energy: -1875351.9303932
Fe        -0.59346       -0.66173        0.00000
Cl        -2.71493        0.29552        0.00000
Cl        -1.32267       -2.77809        0.00000
N          0.24253        1.27547       -0.00000
N         -0.42562       -0.21760        2.09750
N         -0.42562       -0.21760       -2.09750
N          1.45939       -1.42741        0.00000
C          0.54429        1.86007        1.16272
C          0.54429        1.86007       -1.16272
C          1.19416        3.06563        1.19849
C          1.19416        3.06563       -1.19849
C          1.52315        3.65842       -0.00000
C          0.04324        1.17311        2.40521
C          0.04324        1.17311       -2.40521
C          0.27642       -1.24226        2.93343
C          1.70608       -1.45347        2.48789
C          1.70608       -1.45347       -2.48789
C          1.86256       -2.21010        1.20050
C          1.86256       -2.21010       -1.20050
C         -1.09957        1.98674        3.03218
H         -1.43257       -0.26051        2.29294
H         -1.43257       -0.26051       -2.29294
H          2.01398       -0.56358       -0.00000
H          1.43905        3.54062        2.15193
H          1.43905        3.54062       -2.15193
H          0.87286        1.10478        3.12869
H         -0.29744       -2.17779        2.84173
H          0.23857       -0.92181        3.99043
H          2.25129       -0.49064        2.44147
H          2.25129       -0.49064       -2.44147
H          2.21840       -2.03070        3.27696
H          2.91550       -2.52284        1.07620
H          2.91550       -2.52284       -1.07620
H          1.24236       -3.12108        1.20467
H          1.24236       -3.12108       -1.20467
H         -0.77047        3.00835        3.27616
H         -1.94058        2.04057        2.32113
H         -1.44295        1.50865        3.96457
C         -1.09957        1.98674       -3.03218
H         -0.77047        3.00835       -3.27616
H         -1.44295        1.50865       -3.96457
C          0.27642       -1.24226       -2.93343
H         -0.29744       -2.17779       -2.84173
H          0.23857       -0.92181       -3.99043
H          2.21840       -2.03070       -3.27696
H         -1.94058        2.04057       -2.32113
H          0.87286        1.10478       -3.12869
H          2.04729        4.61981       -0.00000
