53
HEKGIQ.log	Energy: -1490393.7356589
Fe         0.00000       -0.00000        0.35846
N          2.14828       -0.44824        0.24301
N         -2.14828        0.44824        0.24301
N         -0.35661       -1.65397        1.62611
N          0.35661        1.65397        1.62611
C          2.16592        1.57198       -1.08946
C         -2.16592       -1.57198       -1.08946
H          2.67830        1.92713       -2.00447
H         -2.67830       -1.92713       -2.00447
H          2.18406        2.40211       -0.35964
H         -2.18406       -2.40211       -0.35964
C          2.80894       -1.46165        0.82908
C         -2.80894        1.46165        0.82908
H          2.20379       -2.15137        1.42667
H         -2.20379        2.15137        1.42667
N          4.91348       -0.76865       -0.03008
C          2.88961        0.40850       -0.48114
C         -2.88961       -0.40850       -0.48114
N          0.74967        1.25055       -1.36179
N         -0.74967       -1.25055       -1.36179
C          0.66180        0.36583       -2.56155
C         -0.66180       -0.36583       -2.56155
H          0.78661        0.96129       -3.48637
H         -0.78661       -0.96129       -3.48637
H          1.49324       -0.35390       -2.52448
H         -1.49324        0.35390       -2.52448
C          4.15988       -1.61520        0.67182
H          4.66758       -2.46196        1.15012
C         -0.71453       -2.65901        2.03344
C          0.71453        2.65901        2.03344
C          0.00179        2.50645       -1.58732
C         -0.00179       -2.50645       -1.58732
H          0.03015        3.10773       -0.66752
H         -0.03015       -3.10773       -0.66752
H          0.43980        3.08631       -2.42207
H         -0.43980       -3.08631       -2.42207
H         -1.04840        2.28230       -1.82038
H          1.04840       -2.28230       -1.82038
C          4.25880        0.23837       -0.59084
C         -4.25880       -0.23837       -0.59084
H          4.84652        0.95812       -1.17656
H         -4.84652       -0.95812       -1.17656
N         -4.91348        0.76865       -0.03008
C         -4.15988        1.61520        0.67182
H         -4.66758        2.46196        1.15012
B          1.24741        4.06245        2.53206
H          0.28930        4.83086        2.59550
H          1.79534        3.90930        3.61784
B         -1.24741       -4.06245        2.53206
H         -0.28930       -4.83086        2.59550
H         -1.79534       -3.90930        3.61784
H         -2.05261       -4.43086        1.66605
H          2.05261        4.43086        1.66605
