49
IBOGIQ.log	Energy: -1691857.4519849
Fe        -0.00784       -0.31113        0.59480
Cl         0.35206       -0.16776        2.92608
N         -0.53748       -0.64927       -1.58820
C          0.76850       -0.65925       -2.31339
C          1.76564       -1.58183       -1.60120
N          1.80084       -1.37047       -0.12341
C         -1.36978        0.51453       -1.97425
C         -2.36002        0.85372       -0.88506
N         -1.89831        0.70713        0.38505
C         -2.70075        1.08396        1.40400
C         -3.98389        1.57473        1.19016
C         -4.46691        1.70578       -0.09721
C         -3.63076        1.33577       -1.13764
C          2.92398       -0.50758        0.28717
C          2.64825        0.94249        0.01668
N          1.34513        1.32365        0.05858
C          1.04555        2.61516       -0.16903
C          2.01024        3.55537       -0.43995
C          3.32667        3.17421       -0.46527
C          3.65435        1.87314       -0.25565
H          1.14496        0.37260       -2.32992
H          0.64114       -0.98549       -3.36344
H          2.77155       -1.43546       -2.03173
H         -1.88320        0.34805       -2.93902
H         -0.69600        1.37798       -2.10873
H         -2.27619        0.94593        2.40519
H         -4.59276        1.85152        2.05563
H         -5.47520        2.08190       -0.29201
H          3.87932       -0.82210       -0.17377
H          3.02541       -0.61598        1.38242
H         -0.01575        2.87875       -0.11055
H          1.71653        4.59402       -0.61514
H          4.10884        3.91223       -0.67082
H          4.69508        1.53677       -0.28897
C          1.74240       -2.65467        0.62240
C          0.38881       -3.34561        0.43932
N         -0.74060       -2.38775        0.63709
C         -1.77889       -2.47606       -0.40681
C         -1.27546       -1.94108       -1.74165
H          2.57359       -3.32830        0.33465
H          0.31354       -4.14451        1.20227
H          0.33089       -3.85528       -0.54282
H         -2.65330       -1.90017       -0.06315
H         -2.11390       -3.52351       -0.54524
H         -0.58880       -2.67124       -2.19488
H         -2.10757       -1.81585       -2.45787
H         -3.96576        1.42287       -2.17617
H          1.85265       -2.39236        1.68614
H          1.49905       -2.63078       -1.78984
