42
IGETOE.log	Energy: -1873082.4213458
N         -2.04463       -1.20357        0.53658
H         -2.07389       -1.59439        1.48359
C         -2.36090       -2.30318       -0.40863
H         -3.44318       -2.51782       -0.34900
H         -1.82345       -3.19367       -0.04629
C         -1.95910       -2.00324       -1.82890
H         -2.33905       -1.01503       -2.15462
H         -2.46193       -2.73540       -2.48369
C          2.48008       -0.09384       -0.97753
C          1.71644       -1.13038       -1.73791
H          1.95623       -1.10645       -2.81619
H          2.00278       -2.12323       -1.34600
N          0.27890       -0.97877       -1.49687
H         -0.04368       -0.11633       -1.94902
C         -0.46954       -2.11334       -2.08012
H         -0.07094       -3.03013       -1.61689
H         -0.26012       -2.16234       -3.16511
C          3.79478        1.72088        0.55593
H          4.28813        2.44618        1.20852
C          4.38636        1.26840       -0.58719
H          5.37742        1.62869       -0.88117
C          3.72595        0.35344       -1.37317
H          4.17016       -0.02633       -2.29750
Fe        -0.01253       -0.52346        0.58453
N         -1.08105        1.23547       -0.11457
C         -0.51806        2.38117       -0.51501
H          0.57482        2.40175       -0.53810
C         -1.25073        3.48585       -0.86544
H         -0.73704        4.40022       -1.17371
C         -2.62990        3.41651       -0.81478
H         -3.24399        4.28011       -1.08731
C         -3.21209        2.23994       -0.42372
H         -4.30099        2.14208       -0.37281
C         -2.42286        1.16834       -0.06507
C         -3.01788       -0.09523        0.46523
H         -3.37092        0.11948        1.49000
H         -3.90530       -0.38584       -0.12198
N          1.89803        0.34635        0.14271
C          2.54874        1.24380        0.90090
H          2.02738        1.54791        1.81537
Cl        -0.16483        0.30604        2.69752
Cl         0.73993       -2.56373        1.20023
