51
MENXAF.log	Energy: -1510802.5585298
Fe         0.00000        0.00000        0.00000
O          0.21064       -1.37729       -1.62505
O         -0.21064        1.37729        1.62505
H         -0.54451       -1.98649       -1.66326
H          0.54451        1.98649        1.66326
C          0.61826       -1.03881       -2.95485
C         -0.61826        1.03881        2.95485
H         -0.15248       -0.44188       -3.47459
H          0.15248        0.44188        3.47459
H          0.82100       -1.95430       -3.53310
H         -0.82100        1.95430        3.53310
H          1.54731       -0.45919       -2.87304
H         -1.54731        0.45919        2.87304
N          1.88510        1.02375       -0.46107
N         -1.88510       -1.02375        0.46107
N          1.45842       -1.05469        1.24079
N         -1.45842        1.05469       -1.24079
H          1.13228       -1.44977        2.12704
H         -1.13228        1.44977       -2.12704
H          1.71605       -1.85707        0.65101
H         -1.71605        1.85707       -0.65101
C          2.10140        1.97738       -1.35233
C         -2.10140       -1.97738        1.35233
H          1.32866        2.12417       -2.11550
H         -1.32866       -2.12417        2.11550
C          3.24288        2.79490       -1.35514
C         -3.24288       -2.79490        1.35514
H          3.35827        3.55173       -2.13522
H         -3.35827       -3.55173        2.13522
C          4.17271        2.64259       -0.36174
C         -4.17271       -2.64259        0.36174
C          3.98296        1.64804        0.63071
C         -3.98296       -1.64804       -0.63071
C          3.46938       -0.36710        2.50504
C         -3.46938        0.36710       -2.50504
H          3.30998       -1.16265        3.24042
H         -3.30998        1.16265       -3.24042
C          2.60905       -0.21193        1.45167
C         -2.60905        0.21193       -1.45167
C          2.82498        0.83053        0.51638
C         -2.82498       -0.83053       -0.51638
C         -4.84940       -1.45408       -1.72438
H         -5.73121       -2.09446       -1.82184
C         -4.58447       -0.49467       -2.64092
H         -5.25203       -0.35269       -3.49598
C          4.84940        1.45408        1.72438
H          5.73121        2.09446        1.82184
C          4.58447        0.49467        2.64092
H          5.25203        0.35269        3.49598
H         -5.05894       -3.28386        0.31674
H          5.05894        3.28386       -0.31674
