32
NALTEB.log	Energy: -2089594.9579791
Fe        -1.65961       -0.14443       -0.06272
Cl        -2.87979       -2.06236       -0.39241
Cl        -3.19048        1.40448       -0.74384
N         -0.11642        1.39133        0.07543
N          0.21666       -1.25928        0.14728
C          1.16007        0.92447        0.03107
C          2.28566        1.76335        0.01132
C         -0.29949        2.70821        0.14434
C          2.05212        3.15614        0.07400
C          0.76321        3.61942        0.15355
O         -1.00662       -0.22869       -2.10193
H         -1.64364        0.46996       -2.37384
H         -1.49229       -1.06223       -2.28412
H         -1.34800        3.02615        0.17193
H          2.90232        3.84591        0.06439
H          0.54481        4.68889        0.21323
C          1.34204       -0.49850        0.04324
C          3.78349       -0.16602       -0.11086
C          2.63869       -1.04245       -0.01629
C          5.16379       -0.74605       -0.25184
C          3.59087        1.18080       -0.07079
C          0.35856       -2.57964        0.24818
C          1.60987       -3.20651        0.22129
C          2.74389       -2.45053        0.06253
H          4.45073        1.85688       -0.11705
H          3.72493       -2.92962        0.02071
H          5.43216       -1.37875        0.61299
H          5.24144       -1.38160       -1.15173
H          5.91927        0.04955       -0.33311
Cl        -2.01599        0.00682        2.20598
H         -0.58188       -3.13785        0.33122
H          1.66095       -4.29504        0.30864
