39
PIJRUW.log	Energy: -1897725.4817532
Fe        -0.00707       -0.66704       -0.05366
Cl         0.03591       -2.32685        1.56624
Cl        -0.03503       -2.11088       -1.85982
O         -0.12615        0.71686        1.40042
O          0.12995        0.86772       -1.34423
N         -2.19070       -0.47077       -0.08891
N          2.17361       -0.46609        0.03887
C         -2.94234       -0.80480        0.95621
H         -2.40280       -1.30972        1.76680
C         -0.01245        2.69574        0.12656
H         -0.01607        3.78644        0.18358
C          2.93350       -0.53392       -1.05561
H          2.39868       -0.81497       -1.97049
C          0.13615        2.11933       -1.12618
C          0.33794        2.98398       -2.33540
H          1.31243        2.73985       -2.79288
H          0.30482        4.05755       -2.10046
H         -0.43049        2.74830       -3.09178
C         -4.90082        0.09472       -0.02694
H         -5.97184        0.32432        0.00233
C          2.77573       -0.14783        1.18505
H          2.12120       -0.12152        2.06242
C         -0.25647        2.73641        2.61244
H         -1.10963        2.34407        3.19108
H         -0.37192        3.82004        2.46762
H          0.64775        2.54765        3.21823
C         -0.14310        1.99061        1.31561
C         -2.79776        0.12552       -1.11428
H         -2.15665        0.35633       -1.97079
C         -4.30086       -0.55157        1.02626
H         -4.85936       -0.85540        1.91537
C         -4.15489        0.42187       -1.11165
H         -4.59035        0.91794       -1.98367
C          4.29244       -0.29134       -1.04271
H          4.85352       -0.37018       -1.97833
C          4.90554        0.03908        0.13671
H          5.98132        0.23736        0.18022
C          4.12566        0.10585        1.27690
H          4.55786        0.35587        2.24988
