35
PVVBAY01.log	Energy: -1321354.3071081
Fe         0.00000        0.00000        0.00000
O         -1.58804        0.90200        0.89551
O          1.31916        1.14247        1.05853
C         -2.77157        0.92383        0.47189
C          2.55830        0.92437        1.20331
C         -3.69573        1.93750        1.07033
C          3.28250        1.81843        2.16747
H         -3.61035        1.92311        2.17051
H         -4.74517        1.78643        0.77901
H         -3.37990        2.94628        0.74685
H          4.35700        1.59493        2.23654
H          2.82646        1.72459        3.16899
H          3.14982        2.87209        1.86426
C          3.27931       -0.06494        0.52873
H          4.33790       -0.16842        0.77869
O         -1.31916       -1.14247       -1.05853
C         -2.55830       -0.92437       -1.20331
C         -3.28250       -1.81843       -2.16747
H         -4.35700       -1.59493       -2.23654
H         -2.82646       -1.72459       -3.16899
H         -3.14982       -2.87209       -1.86426
O          0.07339       -1.58518        1.54221
H         -0.60311       -1.21150        2.13366
H         -0.41277       -2.23221        0.99962
O         -0.07339        1.58518       -1.54221
H          0.60311        1.21150       -2.13366
H          0.41277        2.23221       -0.99962
O          1.58804       -0.90200       -0.89551
C          2.77157       -0.92383       -0.47189
C          3.69573       -1.93750       -1.07033
H          3.61035       -1.92311       -2.17051
H          4.74517       -1.78643       -0.77901
H          3.37990       -2.94628       -0.74685
C         -3.27931        0.06494       -0.52873
H         -4.33790        0.16842       -0.77869
