38
QAHRAT.log	Energy: -2102500.5658860
Fe         0.11947       -0.82053       -0.59140
Cl        -0.07872       -0.32100       -2.80469
Cl         1.97318       -2.14909       -0.96668
N         -1.55805        0.61518       -0.06577
N          1.41283        0.93033       -0.24932
N          0.60686       -0.88808        1.61597
C          2.15115        0.91972        0.91155
C          1.52493        1.95957       -1.06603
H          0.95270        1.87028       -1.99728
C          3.04915        3.03388        0.39818
H          3.69448        3.87839        0.65983
C          2.94383        1.95043        1.23991
H          3.50439        1.92564        2.18006
C          0.64989       -2.30494        2.13226
H          1.29726       -2.88104        1.45648
H         -0.35689       -2.73693        2.08660
H          1.03312       -2.31318        3.16896
C          2.32433        3.04287       -0.80316
H          2.38647        3.87628       -1.50672
C          1.99496       -0.30258        1.76053
H          2.22597       -0.10422        2.82195
H          2.69238       -1.06260        1.36568
C         -0.24111       -0.07247        2.46747
H         -0.02611        0.99294        2.28974
H         -0.02538       -0.28719        3.53205
C         -2.23401        0.49951        1.07131
C         -1.74804       -0.35139        2.15327
H         -1.86795       -1.40672        1.85224
H         -2.35361       -0.18709        3.05710
C         -2.01234        1.44792       -0.99811
C         -3.47512        1.19149        1.22204
H         -4.02890        1.04802        2.15478
C         -3.18050        2.15609       -0.90299
H         -3.50409        2.80569       -1.71924
C         -3.93170        1.98397        0.25917
H         -4.88931        2.50488        0.37342
Cl        -1.45594       -2.44674       -0.50272
H         -1.41962        1.47037       -1.91843
