41
QIXCUX.log	Energy: -1898213.1316795
Fe         0.03791        1.03126        0.29191
Cl        -0.54805        2.46132        2.03609
O          0.77444       -0.68167        1.49854
O          1.59971       -2.75664        1.45645
O          2.15240        1.44093        0.37661
H          2.09428        1.52991        1.34633
N         -1.84668       -0.06289        0.12530
N          0.44109       -0.62478       -1.23439
C         -1.98866       -0.82230       -0.97002
C         -2.83601       -0.05133        1.02863
H         -2.65085        0.60057        1.89200
C          0.81784       -1.91352       -0.58755
H         -0.00806       -2.64318       -0.65165
C          2.07231       -2.40709       -1.32005
H          2.68883       -3.06920       -0.69581
H          1.77220       -2.97229       -2.21904
C          2.72958       -1.09595       -1.71518
H          3.19108       -0.61185       -0.83674
H          3.50385       -1.20825       -2.49076
C          1.54532       -0.28120       -2.18982
H          1.66775        0.81050       -2.20581
C          1.06397       -1.69602        0.89072
C          1.90942       -2.64406        2.86676
H          2.63513       -1.83202        3.02734
H          2.33483       -3.61282        3.15746
H          0.99548       -2.42493        3.43960
C          2.85553        2.56568       -0.12400
H          2.55829        2.70085       -1.17453
H          3.94635        2.40646       -0.04673
H          2.56150        3.48170        0.41564
C         -3.12679       -1.57279       -1.20909
H         -3.20204       -2.17580       -2.11839
Cl        -0.46831        2.59125       -1.56063
C         -0.84882       -0.77105       -1.94816
H         -0.84902       -1.64662       -2.62615
H         -0.96781        0.15901       -2.53726
C         -4.15037       -1.53516       -0.28183
H         -5.06593       -2.11246       -0.44797
C         -4.00291       -0.77065        0.85989
H         -4.78761       -0.71993        1.61942
H          1.25840       -0.60052       -3.21017
