36
QIZMAP.log	Energy: -2088691.0345360
Fe         0.03973        0.56234        0.07115
Cl         0.05138        0.27963        2.39052
Cl         0.28286        0.47279       -2.29273
Cl         0.21431        2.84908        0.15406
N          2.14008       -0.03832        0.06559
N         -0.54044       -1.55143       -0.07727
N         -2.04901        0.59066       -0.04845
C          3.00810        0.96154        0.30150
H          2.54499        1.92292        0.55132
C          4.37922        0.81496        0.21152
H          5.03049        1.67002        0.40911
C          4.87944       -0.42783       -0.13765
H          5.95843       -0.59158       -0.22754
C          4.00474       -1.44823       -0.35960
H          4.37155       -2.44510       -0.62354
C          2.63345       -1.25693       -0.25582
C          1.70654       -2.41291       -0.53495
H          1.38157       -2.32910       -1.59121
H          2.28959       -3.34374       -0.45767
C          0.47907       -2.51909        0.34942
H          0.71534       -2.29798        1.40461
H          0.07185       -3.54800        0.28878
C         -1.85746       -1.74999        0.57273
H         -1.67975       -1.74535        1.66328
H         -2.32873       -2.70624        0.27719
C         -2.65100       -0.56278        0.18154
C         -3.01394        1.47953       -0.47202
H         -2.74661        2.50573       -0.71815
H         -0.63650       -1.54106       -1.10188
N         -3.97623       -0.45510       -0.07735
C         -4.20556        0.83510       -0.50389
H         -5.20351        1.17759       -0.77159
C         -4.94889       -1.53855       -0.04724
H         -5.96145       -1.11094       -0.02592
H         -4.85507       -2.18388       -0.93761
H         -4.81329       -2.14917        0.85839
