35
QOBGIZ.log	Energy: -1435684.3240976
Fe         0.00000        0.00000        0.00000
O          3.09191        1.13324        0.74315
N          2.20205        0.09149        0.51497
C          2.54207        2.40233        0.37436
H          1.50271        2.51636        0.72320
O         -3.09191       -1.13324       -0.74315
N         -2.20205       -0.09149       -0.51497
C         -2.54207       -2.40233       -0.37436
H         -1.50271       -2.51636       -0.72320
O          2.19901       -3.35722        0.87468
C          2.70989       -1.04977        0.82328
C          1.81124       -2.23262        0.52648
C          4.06181       -1.24860        1.41617
H          4.18959       -2.31528        1.64248
H          4.16998       -0.63346        2.32585
H          4.84506       -0.90819        0.71591
O         -2.19901        3.35722       -0.87468
C         -2.70989        1.04977       -0.82328
C         -1.81124        2.23262       -0.52648
C         -4.06181        1.24860       -1.41617
H         -4.18959        2.31528       -1.64248
H         -4.16998        0.63346       -2.32585
H         -4.84506        0.90819       -0.71591
O         -0.45388       -0.24347        1.99862
O          0.70852       -1.99067       -0.07935
O         -0.70852        1.99067        0.07935
O          0.45388        0.24347       -1.99862
H          2.56269        2.53224       -0.72592
H          0.85283        1.12185       -2.11594
H          3.19745        3.15499        0.83584
H         -3.19745       -3.15499       -0.83584
H          1.15659       -0.40856       -2.16554
H         -0.85283       -1.12185        2.11594
H         -2.56269       -2.53224        0.72592
H         -1.15659        0.40856        2.16554
