33
SEFXOR.log	Energy: -2168241.5460521
Fe         1.66419       -0.94943       -0.03652
Cl         2.10988       -1.01113        2.21919
Cl         0.67773       -3.01181       -0.17255
Cl         3.77507       -1.43567       -0.74309
O          1.20910       -0.69103       -2.12012
H          2.14264       -0.89064       -2.36083
H          0.77878       -1.57626       -2.13156
N          1.98493        1.25360       -0.04222
N         -0.24102       -0.07422        0.20267
N         -1.49036       -0.59163        0.27598
N         -1.63893        1.63652       -0.05921
N         -4.17867       -0.98738       -0.03492
H         -3.43337       -1.70116       -0.01768
C          3.16911        1.86539       -0.00016
H          4.03283        1.19078        0.03466
C          3.29199        3.24261       -0.01336
H          4.28723        3.69326        0.03200
C          2.15751        4.01498       -0.10055
H          2.22517        5.10718       -0.12819
C          0.91851        3.39286       -0.13836
H         -0.01692        3.95621       -0.18201
C          0.86617        2.01791       -0.08608
C         -0.36280        1.24007        0.00245
C         -2.28821        0.45849        0.11733
C         -3.73433        0.28211        0.06311
C         -4.66381        1.30518        0.07885
H         -4.28684        2.32771        0.15138
C         -6.01066        1.00874       -0.00707
H         -6.74837        1.81670        0.00388
C         -6.41728       -0.30448       -0.09667
H         -7.47501       -0.57043       -0.16104
C         -5.48221       -1.29747       -0.10541
H         -5.72898       -2.36008       -0.17090
