54
UMAXIQ.log	Energy: -1483606.8377450
Fe         0.00000        0.00000        0.45848
N         -2.61008        1.67900       -2.73432
N          2.61008       -1.67900       -2.73432
N         -1.36893        0.87754       -1.09267
N          1.36893       -0.87754       -1.09267
N          0.63212        2.00298        0.26294
N         -0.63212       -2.00298        0.26294
N          1.57092        0.23808        2.05681
N         -1.57092       -0.23808        2.05681
C         -2.96568       -0.73389       -2.16681
C          2.96568        0.73389       -2.16681
C         -2.32035        0.59565       -1.97116
C          2.32035       -0.59565       -1.97116
C         -1.79039        2.70610       -2.34398
C          1.79039       -2.70610       -2.34398
C         -1.04180        2.21400       -1.31231
C          1.04180       -2.21400       -1.31231
C         -0.00000        2.79420       -0.54912
C          0.00000       -2.79420       -0.54912
C          1.71571        2.46963        1.08420
C         -1.71571       -2.46963        1.08420
C          2.50465        1.24466        1.51151
C         -2.50465       -1.24466        1.51151
H         -3.29797        1.71192       -3.48440
H          3.29797       -1.71192       -3.48440
H          1.98082       -0.66837        1.82143
H         -1.98082        0.66837        1.82143
H         -3.07181       -0.97081       -3.23814
H          3.07181        0.97081       -3.23814
H         -2.35038       -1.51045       -1.69565
H          2.35038        1.51045       -1.69565
H         -3.97636       -0.76565       -1.72157
H          3.97636        0.76565       -1.72157
H         -1.82126        3.69255       -2.80546
H          1.82126       -3.69255       -2.80546
H          0.28495        3.84868       -0.68466
H         -0.28495       -3.84868       -0.68466
H          1.30599        2.97673        1.97977
H         -1.30599       -2.97673        1.97977
H          2.35708        3.20515        0.56584
H         -2.35708       -3.20515        0.56584
H          3.00021        0.79091        0.64217
H         -3.00021       -0.79091        0.64217
H          3.28558        1.50700        2.24849
H         -3.28558       -1.50700        2.24849
C          1.26874        0.23511        3.43187
C         -1.26874       -0.23511        3.43187
C          0.00000        0.00000        4.11923
H          1.60460        1.23346        3.77669
H         -1.60460       -1.23346        3.77669
H          2.02247       -0.41358        3.92146
H         -2.02247        0.41358        3.92146
H         -0.14832        0.85084        4.80144
H          0.14832       -0.85084        4.80144
