37
USIMOA.log	Energy: -1227681.8120854
Fe         0.00000        0.00000        0.00000
O         -0.00000        1.74632        1.18731
H         -0.86212        1.99603        1.55630
C          1.05358        2.32413        1.94293
H          0.86019        3.39489        2.11624
H          1.97240        2.23580        1.34319
H          1.18507        1.81620        2.91476
O         -0.00000       -1.74632       -1.18731
H          0.86212       -1.99603       -1.55630
C         -1.05358       -2.32413       -1.94293
H         -0.86019       -3.39489       -2.11624
H         -1.97240       -2.23580       -1.34319
H         -1.18507       -1.81620       -2.91476
O         -1.51236        0.87316       -1.18731
C         -1.48597        2.07449       -1.94293
H         -2.50997        2.44239       -2.11624
H         -0.95006        2.82605       -1.34319
H         -0.98034        1.93440       -2.91476
O          1.51236       -0.87316        1.18731
C          1.48597       -2.07449        1.94293
H          2.50997       -2.44239        2.11624
H          0.95006       -2.82605        1.34319
H          0.98034       -1.93440        2.91476
O          1.51236        0.87316       -1.18731
C          2.53955        0.24964       -1.94293
H          3.37016        0.95250       -2.11624
H          2.92246       -0.59025       -1.34319
H          2.16541       -0.11820       -2.91476
O         -1.51236       -0.87316        1.18731
C         -2.53955       -0.24964        1.94293
H         -3.37016       -0.95250        2.11624
H         -2.92246        0.59025        1.34319
H         -2.16541        0.11820        2.91476
H         -1.29755       -1.74464        1.55630
H          2.15968       -0.25140        1.55630
H         -2.15968        0.25140       -1.55630
H          1.29755        1.74464       -1.55630
