44
VEYFEL.log	Energy: -1521023.8016234
Fe        -0.04120        0.14673       -0.08267
O         -0.90268        0.82520       -1.71298
O         -1.30608       -1.33492       -0.31687
O          1.40775       -0.79954       -0.89891
N         -1.39599        0.77613        1.42843
N          1.11322        0.07313        1.72963
C         -2.62826       -1.24763       -0.29164
C         -3.37933       -2.15488       -1.06893
H         -2.81590       -2.86575       -1.67895
C         -4.74543       -2.13457       -1.04953
H         -5.30438       -2.84548       -1.66860
C         -5.43669       -1.20713       -0.26773
H         -6.53110       -1.19785       -0.26747
C         -4.74036       -0.34952        0.51489
H         -5.26706        0.36268        1.16185
C         -3.31969       -0.33075        0.51454
C         -2.64883        0.53861        1.45475
H         -3.26638        0.96555        2.26768
C         -0.72094        1.46128        2.51843
H         -1.40158        1.66863        3.36443
C          0.42646        0.55056        2.93648
H          1.12593        1.06453        3.62120
H          0.00753       -0.32504        3.46919
C          2.37260       -0.20289        1.79358
H          2.89811       -0.04771        2.75401
C          3.18164       -0.71444        0.71790
C          4.54995       -1.00191        0.98989
H          4.94249       -0.76742        1.98614
C          5.34409       -1.57583        0.05232
C          4.84417       -1.87319       -1.19347
H          5.48715       -2.33134       -1.95275
C          3.51106       -1.60275       -1.50399
H          3.08737       -1.83604       -2.48386
C          2.66525       -1.02150       -0.55652
O          0.76713        2.04539       -0.22970
N         -0.40163        2.03526       -2.09137
H         -0.74152        2.38920       -2.98380
C          0.43890        2.63628       -1.31889
C          1.00656        3.95644       -1.69678
H          0.80598        4.68871       -0.89685
H          0.59443        4.33851       -2.64405
H          2.10212        3.86948       -1.79080
H         -0.30849        2.41170        2.13551
H          6.39146       -1.79479        0.28583
