23
WABHIR.log	Energy: -1861049.2279058
Fe         0.00000        0.00000        0.00000
S          2.19915        1.93803        1.67207
O          3.06319        3.05236        1.22809
O          3.00909        0.88864        2.29485
O          1.51652        1.41871        0.45373
S         -2.19915       -1.93803       -1.67207
O         -3.06319       -3.05236       -1.22809
O         -3.00909       -0.88864       -2.29485
O         -1.51652       -1.41871       -0.45373
O         -1.19192        0.79103        1.59577
H         -0.46782        1.33013        2.04346
H         -1.24397       -0.04239        2.09142
O          1.19192       -0.79103       -1.59577
H          0.46782       -1.33013       -2.04346
H          1.24397        0.04239       -2.09142
O          0.71028       -1.40756        1.40420
H          1.52870       -0.91251        1.67079
H          0.99010       -2.09790        0.78264
O         -0.71028        1.40756       -1.40420
H         -1.52870        0.91251       -1.67079
H         -0.99010        2.09790       -0.78264
O         -1.18215       -2.42480       -2.61481
O          1.18215        2.42480        2.61481
