42
WABYIJ.log	Energy: -1969361.8060577
Fe         1.36546       -0.90627       -0.19417
Cl         3.01915       -1.55231       -1.64659
Cl         0.46930       -3.05414        0.25843
N          0.19698       -0.09240        1.35765
N          2.23239        1.17186       -0.27947
O          2.61322       -1.12459        1.48642
H          2.93959       -2.03215        1.33916
O         -0.04668       -0.40185       -1.35711
C          1.92087       -1.04808        2.74505
H          2.64424       -0.86686        3.55849
H          1.38293       -1.99766        2.90975
C          0.92969        0.08639        2.61073
H          0.25198        0.11833        3.48312
H          1.47794        1.04751        2.56729
C         -1.03728        0.24032        1.28774
H         -1.51328        0.60841        2.20774
C         -1.86520        0.13388        0.11331
C         -1.32939       -0.22093       -1.14504
C         -2.20092       -0.37084       -2.26241
H         -1.73380       -0.66155       -3.20655
C         -4.12002        0.17898       -0.91983
C         -3.29030        0.39788        0.22751
C          1.43574        2.24138       -0.36457
H          0.36158        2.04025       -0.41634
C          1.93286        3.52277       -0.42317
H          1.23890        4.36352       -0.51348
C          3.29724        3.72186       -0.38647
C          4.10712        2.63905       -0.26624
C          3.54571        1.38071       -0.22364
H          4.15930        0.47524       -0.18000
C         -3.53037       -0.19286       -2.13604
H         -4.18444       -0.34563       -3.00247
C         -3.91335        0.82764        1.41642
H         -3.31686        1.04593        2.30497
C         -5.26796        0.95890        1.50544
H         -5.72433        1.27762        2.44819
C         -6.08021        0.67659        0.39763
C         -5.52093        0.33714       -0.77584
H         -6.14684        0.14858       -1.65589
H          3.71123        4.73399       -0.44376
H         -7.16730        0.77112        0.48718
H          5.19594        2.73654       -0.22552
