41
WIYGOA.log	Energy: -1859395.7259156
N          1.86031       -0.83458       -0.98480
N          1.73813       -2.22153       -1.22934
N          2.15436       -4.27553       -1.88858
C          2.66887       -3.07563       -1.77736
C          4.04151       -2.64643       -2.16332
C          4.94224       -3.79693       -2.55518
H          1.98007       -0.34337       -1.87977
H          2.69594       -0.66836       -0.41242
H          4.47837       -2.08135       -1.31576
H          3.95354       -1.91837       -2.99499
H          5.06593       -4.50893       -1.72413
H          4.52981       -4.35112       -3.41266
H          5.93601       -3.41840       -2.83686
Fe         0.00000        0.00000        0.00000
S          0.84432        2.31960        0.29316
O          0.70413       -0.48818        1.91509
N         -0.86566        4.13694        1.38992
C         -0.57974        2.90284        0.98112
H          1.36116        0.05630        2.38049
H         -0.24628        4.94695        1.36249
O         -0.70413        0.48818       -1.91509
H         -1.36116       -0.05630       -2.38049
N         -1.86031        0.83458        0.98480
N         -1.73813        2.22153        1.22934
N         -2.15436        4.27553        1.88858
C         -2.66887        3.07563        1.77736
C         -4.04151        2.64643        2.16332
C         -4.94224        3.79693        2.55518
H         -1.98007        0.34337        1.87977
H         -2.69594        0.66836        0.41242
H         -4.47837        2.08135        1.31576
H         -3.95354        1.91837        2.99499
H         -5.06593        4.50893        1.72413
H         -4.52981        4.35112        3.41266
H         -5.93601        3.41840        2.83686
S         -0.84432       -2.31960       -0.29316
N          0.86566       -4.13694       -1.38992
C          0.57974       -2.90284       -0.98112
H          0.24628       -4.94695       -1.36249
H         -0.77293        1.40526       -2.22941
H          0.77293       -1.40526        2.22941
