34
XIWMAS.log	Energy: -2316159.2485406
Fe         0.29616       -0.86537       -0.64505
C         -2.41776       -1.64674        0.74248
H         -1.98530       -2.63790        0.55892
C         -3.60217       -1.45517        1.41325
H         -4.17166       -2.32015        1.76338
C         -4.02609       -0.16893        1.64420
H         -4.95291        0.02621        2.19308
C         -3.28042        0.89207        1.15080
H         -3.62283        1.91718        1.30031
C         -2.11111        0.62888        0.45813
C         -1.28839        1.68508       -0.17714
C          2.30079        0.12376        3.38865
H          1.93396       -0.85741        3.72695
H          1.58890        0.91080        3.68618
H          3.30262        0.31159        3.80697
C          2.85133        1.73414        1.29622
H          2.04299        2.39089        1.65543
H          2.94884        1.79580        0.20208
N         -1.66275       -0.63059        0.28349
N         -0.22754        1.25172       -0.88029
Cl         2.39649       -0.60110       -1.56759
Cl         0.57256       -2.99613        0.21959
Cl        -0.71586       -1.47488       -2.62391
S          2.41673        0.03343        1.61946
O          0.96266       -0.08920        1.17661
C         -1.60424        3.03479       -0.09323
H         -2.47384        3.36800        0.47511
C         -0.79844        3.95782       -0.73906
H         -1.03126        5.02568       -0.67876
C          0.28939        3.51287       -1.45389
H          0.94822        4.20566       -1.98472
C          0.54165        2.15527       -1.51010
H          1.38989        1.72223       -2.05477
H          3.81403        1.97466        1.77519
