%nproc=4
%mem=12gb
#p UB3LYP/def2TZVP IOp(3/76=1000001500) IOp(3/77=0720008500) IOp(3/78=0810010000) scf=(maxconventionalcycles=120,xqc) int=ultrafine
#p EmpiricalDispersion=GD3BJ

AROFIX_1_opt_2_SPE

1 2
H         -0.63277        1.28935        1.99025
C          2.27607       -0.55830       -1.19971
C         -1.29185        0.15589       -2.09113
H         -1.42487        0.95786       -2.83765
H         -1.27178       -0.81132       -2.62193
C         -2.44501        0.09378       -1.12292
C         -3.72130        0.50698       -1.45951
H         -3.90223        0.97621       -2.43085
C         -4.75716        0.29073       -0.56793
H         -5.77551        0.59794       -0.82531
C         -4.49243       -0.31543        0.63206
H         -5.28617       -0.51288        1.35779
C         -3.19330       -0.66997        0.93654
H         -2.91378       -1.13463        1.88840
C          0.32368        1.70677       -1.06492
H          1.39799        1.78643       -0.84356
H          0.10064        2.35179       -1.93258
C         -0.43409        2.15272        0.14760
H         -1.52349        2.12077       -0.04261
C         -0.14053        3.57382        0.58837
H         -0.58883        4.27049       -0.13823
H         -0.61194        3.76797        1.56510
N          1.94027       -0.85876        0.06682
N          0.00686        0.28488       -1.37710
N         -2.18955       -0.46228        0.07341
O         -0.11351        1.18108        1.17541
Cl         1.59034        3.98264        0.72669
Cl        -0.12044       -1.51729        2.62044
Cl        -0.39987       -2.87549       -0.62983
Fe        -0.15277       -0.88039        0.48522
C          4.24109       -1.20656        0.57849
H          4.99567       -1.48114        1.32048
C          2.90751       -1.18315        0.94730
H          2.56466       -1.42940        1.95723
C          4.58494       -0.87455       -0.69980
H          5.63482       -0.87378       -1.00967
C          3.59828       -0.54086       -1.61249
H          3.84533       -0.27454       -2.64373
C          1.13555       -0.30040       -2.14256
H          0.79658       -1.27181       -2.53990
H          1.43366        0.34875       -2.98450

