%nproc=4
%mem=12gb
#p UB3LYP/def2TZVP IOp(3/76=1000001500) IOp(3/77=0720008500) IOp(3/78=0810010000) scf=(maxconventionalcycles=120,xqc) int=ultrafine
#p EmpiricalDispersion=GD3BJ

BEDLOM_1_opt_2_SPE

-1 2
Fe        -1.38325       -0.00072        0.26951
O         -0.37107        0.07289        2.04894
C          1.78492       -0.02576        0.94990
H          2.83439       -0.02369        1.25940
Cl        -2.73318       -1.73446        1.05656
O          1.45363       -0.28061        3.32469
C          0.89328       -0.08964        2.23865
Cl        -2.11771       -0.00128       -1.93698
N          0.24096       -1.48844       -0.25932
C         -0.86691       -3.22148       -1.70936
H         -0.58337       -4.17404       -2.18299
H         -1.31719       -2.53178       -2.44312
H         -1.63357       -3.37231       -0.93087
N          1.54799       -1.20059        0.11186
C          0.34806       -2.55843       -1.08336
C          1.68863       -2.91617       -1.24550
H          2.06628       -3.74385       -1.84631
C          2.45700       -2.04008       -0.48992
C          3.93612       -1.92948       -0.32031
H          4.33125       -0.99412       -0.75618
H          4.42821       -2.77053       -0.83146
H          4.23555       -1.95568        0.74234
N          0.24288        1.43782       -0.31338
C         -0.85726        3.21640       -1.73577
H         -1.27851        2.52242       -2.48125
H         -0.56593        4.17200       -2.19820
H         -1.64613        3.35751       -0.97731
N          1.53259        1.19155        0.16173
C          0.35196        2.56459       -1.06525
C          1.67599        3.01234       -1.07026
H          2.06029        3.89591       -1.57991
C          2.41812        2.12540       -0.30038
C          3.88713        2.07224        0.01183
H          4.36290        1.16632       -0.40371
Cl        -2.77914        1.75115        0.93769
H          4.07775        2.08140        1.09940
H          4.38946        2.94711       -0.42772

