%nproc=4
%mem=12gb
#p UB3LYP/def2TZVP IOp(3/76=1000001500) IOp(3/77=0720008500) IOp(3/78=0810010000) scf=(maxconventionalcycles=120,xqc) int=ultrafine
#p EmpiricalDispersion=GD3BJ

BOMXAC10_1_opt_2_SPE

0 2
Fe        -0.56893        1.09452       -0.14245
Cl        -0.34513        1.32504       -2.46510
O          1.46648        0.75402       -0.00143
O         -0.60593        0.73323        1.99886
N          0.98180       -1.41209       -0.19822
N         -0.33932       -1.01201       -0.18081
C          3.32136       -0.74823       -0.06344
C          3.80649       -2.02926        0.09615
C          5.17287       -2.25158        0.10077
C          6.04916       -1.20136       -0.03315
C          5.57282        0.07451       -0.19207
C          4.21408        0.30598       -0.21257
C          1.87996       -0.42944       -0.08538
C          0.40669        1.06394        2.96206
H          1.21961       -2.38614       -0.37394
H          3.13468       -2.88181        0.24288
H          5.55167       -3.27033        0.22962
H          7.12791       -1.38823       -0.01819
H          6.26560        0.91388       -0.30702
H          3.80802        1.31287       -0.34215
H         -1.34634        1.35672        2.11953
H          1.24167        0.36446        2.81256
O         -2.41021        0.74626       -0.12488
C         -1.24466       -1.92744       -0.06154
C         -2.64762       -1.63776       -0.00165
C         -3.52868       -2.73855        0.10591
C         -4.88610       -2.55686        0.11755
C         -5.39701       -1.27794        0.01384
C         -4.56881       -0.19011       -0.06072
C         -3.17705       -0.33321       -0.05978
H         -0.94097       -2.98652       -0.01335
H         -3.10497       -3.74738        0.16759
H         -5.55640       -3.41813        0.19370
H         -6.48150       -1.12331        0.00447
H         -4.96232        0.82737       -0.13392
Cl        -0.47113        3.33951        0.36224
H          0.76309        2.09645        2.80436
H          0.00769        0.93980        3.98326

