%nproc=4
%mem=12gb
#p UB3LYP/def2TZVP IOp(3/76=1000001500) IOp(3/77=0720008500) IOp(3/78=0810010000) scf=(maxconventionalcycles=120,xqc) int=ultrafine
#p EmpiricalDispersion=GD3BJ

COKKET_1_opt_2_SPE

-1 2
Fe        -0.01538        1.18118        0.03810
N          1.30216       -0.32939        0.02434
N         -1.27873       -0.34809       -0.01964
N          0.02203        0.98337        3.13899
N         -2.19584        3.34351       -0.04410
N         -0.00222        1.24385       -3.06431
C          2.63841       -0.22094       -0.01932
H          3.00962        0.81106       -0.02283
C          3.50097       -1.30512       -0.09626
C          4.97455       -1.09332       -0.21684
H          5.24381       -0.04499       -0.01509
H          5.53598       -1.73694        0.48281
H          5.32728       -1.33640       -1.23634
C          2.91366       -2.57062       -0.02589
H          3.54372       -3.46719       -0.04493
C          1.54632       -2.69492        0.05643
H          1.08915       -3.68623        0.10228
C          0.75345       -1.56865        0.05540
C         -0.71061       -1.57316        0.04053
C         -1.49604       -2.71536        0.08138
H         -1.02812       -3.70005        0.15112
C         -2.86922       -2.60006        0.03927
H         -3.49309       -3.50036        0.07735
C         -3.45341       -1.35529       -0.06706
C         -4.95321       -1.16188       -0.15037
H         -5.21585       -0.09399       -0.10822
H         -5.35227       -1.57423       -1.09464
H         -5.46798       -1.67933        0.67810
C         -2.61573       -0.25538       -0.08234
H         -3.00154        0.76914       -0.13755
C          1.28299        2.60720        0.12166
C         -1.36157        2.55245        0.00370
C          0.00050        1.24665       -1.92726
C         -0.02182        1.09201        2.00770
N          2.07171        3.42493        0.14370

