%nproc=4
%mem=12gb
#p UB3LYP/def2TZVP IOp(3/76=1000001500) IOp(3/77=0720008500) IOp(3/78=0810010000) scf=(maxconventionalcycles=120,xqc) int=ultrafine
#p EmpiricalDispersion=GD3BJ

CUFYAF_1_opt_2_SPE

-1 2
Fe         0.00023       -0.02319        0.20623
O         -0.22031        0.68837        2.08203
O          0.06352       -1.41194        1.61515
O         -0.21833       -0.83392        3.76317
O         -0.30962        1.71580       -0.66525
N         -2.09948       -0.16838       -0.26223
C         -0.13432       -0.53231        2.57491
C         -1.52074        2.06777       -0.97266
C         -2.56853        1.02871       -0.68337
C         -4.32695       -0.99821       -0.28916
C         -2.96262       -1.19403       -0.09025
C         -2.42193       -2.53289        0.28909
H         -1.79071       -2.45524        1.19079
H         -3.22955       -3.26737        0.42714
O          0.39696       -1.37758       -1.21487
O          2.00755       -2.59370       -2.19296
N          2.13566        0.25711       -0.10123
C          1.62347       -1.65924       -1.49126
C          2.64005       -0.71406       -0.89902
C          3.98339       -0.81946       -1.19389
H          4.29791       -1.64058       -1.84204
C         -3.90940        1.27174       -0.88776
H         -4.19996        2.26812       -1.22916
C         -4.81040        0.23408       -0.67305
H         -5.88526        0.38966       -0.81722
C          4.84470        0.12429       -0.65572
H          5.92036        0.07929       -0.86021
C          4.32955        1.12686        0.13878
H          4.98308        1.89170        0.56860
C          2.96637        1.18601        0.40836
C          2.38104        2.28703        1.24809
H          3.16701        2.90861        1.70257
H          1.72643        2.90830        0.61090
O         -1.83309        3.12458       -1.49853
H          1.70788        1.86566        2.01505
H         -1.72736       -2.87428       -0.49929
H         -5.00444       -1.84278       -0.13322

