%nproc=4
%mem=12gb
#p UB3LYP/def2TZVP IOp(3/76=1000001500) IOp(3/77=0720008500) IOp(3/78=0810010000) scf=(maxconventionalcycles=120,xqc) int=ultrafine
#p EmpiricalDispersion=GD3BJ

HIWJUT_1_opt_2_SPE

0 2
Fe         0.24369        0.31644        1.02812
Cl         0.83899       -1.40289        2.43859
Cl        -1.60803        0.90104        2.24105
N         -0.53511        1.62522       -0.52164
N          1.77999       -0.37967       -0.39108
N         -0.78319       -1.10588       -0.39769
C         -2.05461       -1.65715        0.17739
H         -2.76188       -0.81533        0.23155
H         -1.83004       -1.92831        1.22130
C          0.19434       -2.18819       -0.62276
H         -0.12082       -2.87931       -1.42385
H          0.28756       -2.74072        0.32890
C         -1.05627       -0.41552       -1.69060
H         -0.23526       -0.64533       -2.39243
H         -1.97177       -0.81048       -2.16053
C          1.53958       -1.58828       -0.94565
C          3.67134       -1.59195       -2.02301
C          2.95589        0.22078       -0.64872
H          3.09619        1.18309       -0.14268
C         -2.64323       -2.84775       -0.59247
H         -2.64743       -2.65797       -1.68176
H         -2.02587       -3.74826       -0.43269
C         -1.13739        1.06643       -1.57260
C          3.91735       -0.36569       -1.45360
C          2.46165       -2.22453       -1.76021
C         -0.57549        2.97377       -0.40871
H         -0.07308        3.36001        0.48531
C         -4.07470       -3.10992       -0.11896
H         -4.10366       -3.28780        0.96990
H         -4.51324       -3.99173       -0.61510
H         -4.72631       -2.24382       -0.32771
H          2.22138       -3.19914       -2.19449
H          4.41660       -2.07065       -2.66620
H          4.85833        0.16323       -1.63000
C         -1.77955        3.19160       -2.43319
C         -1.77804        1.81711       -2.54296
H         -2.26791        1.31389       -3.38188
C         -1.16621        3.77398       -1.33585
H         -1.15887        4.85867       -1.19882
H         -2.27257        3.80860       -3.19111
Cl         1.67568        1.96056        1.81892

