%nproc=4
%mem=12gb
#p UB3LYP/def2TZVP IOp(3/76=1000001500) IOp(3/77=0720008500) IOp(3/78=0810010000) scf=(maxconventionalcycles=120,xqc) int=ultrafine
#p EmpiricalDispersion=GD3BJ

HOKMAV_1_opt_2_SPE

0 2
Fe         0.30228       -1.11590       -0.07268
Cl         0.49745       -1.54439        2.13855
Cl         2.35299       -1.92923       -0.78004
Cl        -1.05186       -2.82996       -0.80854
N          0.02236       -0.02788       -1.94010
H          0.92738       -0.07600       -2.41443
H         -0.69135       -0.55418       -2.45052
C         -0.38455        1.31176       -1.49329
H         -0.59117        2.01776       -2.31722
N          1.24775        0.86386        0.17516
C          0.73957        1.82098       -0.62389
C          2.76164        2.45874        1.05424
H          3.58742        2.67790        1.73687
C          2.21432        3.44390        0.25984
H          2.60045        4.46747        0.29698
C          1.18092        3.11906       -0.59692
H          0.72934        3.86684       -1.25556
C          2.24733        1.18821        1.00099
H          2.61411        0.36301        1.62185
N         -1.48387        0.10709        0.23548
C         -2.46919       -0.12201        1.11154
H         -2.29832       -0.97267        1.78093
C         -3.60187        0.65608        1.15107
H         -4.38676        0.42814        1.87762
C         -3.72149        1.71632        0.28311
H         -4.61256        2.35191        0.29873
C         -2.70257        1.96815       -0.62501
H         -2.76316        2.79858       -1.33434
C         -1.60646        1.13951       -0.62077

