%nproc=4
%mem=12gb
#p UB3LYP/def2TZVP IOp(3/76=1000001500) IOp(3/77=0720008500) IOp(3/78=0810010000) scf=(maxconventionalcycles=120,xqc) int=ultrafine
#p EmpiricalDispersion=GD3BJ

HUJKIG_1_opt_2_SPE

0 2
N          0.02134        1.17091        0.05069
C          1.24591        3.18316        0.06765
H          2.20230        3.70871        0.06180
C          1.18947        1.80133        0.01709
C          2.35619        0.90564       -0.04587
C         -1.13664        1.83868        0.07069
C          0.06136        3.87972        0.13354
H          0.07907        4.97274        0.18673
C          3.66172        1.35006       -0.10261
H          3.88208        2.41861       -0.14372
C          4.68179        0.42420       -0.08883
H          5.72350        0.75821       -0.12529
N         -2.05402       -0.34987        0.13972
C         -2.32112        0.96962        0.03839
C         -3.61307        1.43531       -0.10031
H         -3.80875        2.50395       -0.21108
C         -4.65022        0.52470       -0.11623
H         -5.68017        0.87208       -0.24464
C         -3.06988       -1.21601        0.17485
H         -2.77494       -2.26739        0.26973
C         -4.38075       -0.81481        0.05292
H         -5.18030       -1.56014        0.06839
C         -1.14734        3.21977        0.11765
H         -2.08713        3.77377        0.15607
Fe        -0.01119       -0.93088        0.02901
Cl        -0.09630       -0.64302       -2.32614
Cl        -0.13603       -3.16794       -0.20407
N          2.05630       -0.40601       -0.01140
C          3.05508       -1.28907        0.00515
H          2.74240       -2.33890        0.03971
C          4.37913       -0.91297       -0.02744
H          5.16038       -1.67730       -0.00832
Cl         0.11453       -0.99273        2.33982

