%nproc=4
%mem=12gb
#p UB3LYP/def2TZVP IOp(3/76=1000001500) IOp(3/77=0720008500) IOp(3/78=0810010000) scf=(maxconventionalcycles=120,xqc) int=ultrafine
#p EmpiricalDispersion=GD3BJ

IXEPUY_1_opt_1_SPE

0 1
Fe        -0.03835       -0.69707        0.10316
Cl        -0.45415       -2.07988       -1.83009
Cl         0.14544       -2.22533        1.88289
S          0.57278        1.15965        1.85999
S         -0.20222        1.42927       -1.42278
C          2.65354       -0.80156       -1.42264
H          1.95707       -1.32092       -2.09518
C          3.97141       -0.54600       -1.74995
H          4.35436       -0.86669       -2.72286
C          4.77104        0.10404       -0.83850
H          5.81983        0.32384       -1.06226
C          4.22066        0.48046        0.37902
H          4.82425        1.00109        1.12860
C          2.90171        0.20180        0.64604
C          2.27610        0.58195        1.96577
H          2.90487        1.29039        2.52710
H          2.14076       -0.33988        2.56449
C          0.71699        2.66256        0.83200
H          0.69889        3.54847        1.48853
H          1.69066        2.64901        0.31199
C         -0.42357        2.71891       -0.16013
H         -0.45750        3.70637       -0.65187
H         -1.39056        2.55985        0.34747
C         -1.89460        1.06001       -1.91679
H         -2.36463        1.91304       -2.43059
H         -1.72453        0.23844       -2.64089
C         -2.76884        0.51722       -0.81703
C         -4.13019        0.73034       -0.85898
H         -4.55871        1.31825       -1.67594
C         -4.93382        0.21736        0.14739
H         -6.01544        0.38491        0.13529
C         -4.33803       -0.51945        1.15682
H         -4.92484       -0.95366        1.97094
C         -2.97337       -0.70790        1.12678
H         -2.43924       -1.29920        1.88248
N          2.10904       -0.43358       -0.24547
N         -2.17951       -0.20386        0.16102

