%nproc=4
%mem=12gb
#p UB3LYP/def2TZVP IOp(3/76=1000001500) IOp(3/77=0720008500) IOp(3/78=0810010000) scf=(maxconventionalcycles=120,xqc) int=ultrafine
#p EmpiricalDispersion=GD3BJ

JACGIG_1_opt_2_SPE

-1 2
C          1.40036       -0.49901       -0.08057
C         -0.24285        2.70611       -0.16124
H         -1.29930        3.00648       -0.17653
C          2.34970        1.77559       -0.06168
C          1.22088        0.92529       -0.07768
C          0.82091        3.63573       -0.16345
H          0.60065        4.70545       -0.20566
C          2.10885        3.15821       -0.11435
H          2.96251        3.84632       -0.10484
C          3.65538        1.18577        0.02306
H          4.51348        1.86532        0.08563
N          0.26799       -1.27352       -0.15753
N         -0.06184        1.38484       -0.10486
Fe        -1.63429       -0.14167        0.06056
Cl        -1.75808       -0.04862       -2.38582
Cl        -1.15534       -0.10745        2.40810
Cl        -3.33576        1.44076        0.24759
C          0.40090       -2.59050       -0.23913
C          2.70323       -1.05093       -0.06025
C          1.66493       -3.21481       -0.25252
C          2.80796       -2.45456       -0.15219
H          3.79107       -2.93348       -0.14585
C          3.85087       -0.14272        0.05615
C          5.24303       -0.72789        0.20026
H          5.31373       -1.37256        1.09449
H          5.51535       -1.35303       -0.66935
H          5.99601        0.07018        0.29343
Cl        -2.89304       -2.09204        0.15395
H          1.71809       -4.30450       -0.33266
H         -0.55000       -3.13887       -0.27973

