%nproc=4
%mem=12gb
#p UB3LYP/def2TZVP IOp(3/76=1000001500) IOp(3/77=0720008500) IOp(3/78=0810010000) scf=(maxconventionalcycles=120,xqc) int=ultrafine
#p EmpiricalDispersion=GD3BJ

KAPQEA_1_opt_1_SPE

0 1
Fe         0.00000        0.00000        0.00000
N         -0.75719        1.97419        0.06363
C         -1.12172        3.03091        0.36622
S         -1.63731        4.50573        0.82559
N          0.41314        0.11232        2.20382
C          1.19171        0.49222        4.83061
C         -0.01328        1.00269        4.38534
H         -0.67221        1.57292        5.04318
C         -0.35729        0.78718        3.06351
H         -1.27069        1.23050        2.65265
O          1.91206        0.76602       -0.34670
H          2.38695        0.25150       -1.01877
H          1.76075        1.65487       -0.71431
N          0.75719       -1.97419       -0.06363
C          1.12172       -3.03091       -0.36622
S          1.63731       -4.50573       -0.82559
C          1.56338       -0.39131        2.66499
H          2.15206       -0.96009        1.93865
C          1.99629       -0.22069        3.96236
H          2.94851       -0.64454        4.28798
N         -0.41314       -0.11232       -2.20382
C         -1.19171       -0.49222       -4.83061
C          0.01328       -1.00269       -4.38534
H          0.67221       -1.57292       -5.04318
C          0.35729       -0.78718       -3.06351
H          1.27069       -1.23050       -2.65265
C         -1.56338        0.39131       -2.66499
H         -2.15206        0.96009       -1.93865
C         -1.99629        0.22069       -3.96236
H         -2.94851        0.64454       -4.28798
C         -1.60433       -0.68155       -6.20474
N         -1.94545       -0.81731       -7.28580
O         -1.91206       -0.76602        0.34670
H         -2.38695       -0.25150        1.01877
H         -1.76075       -1.65487        0.71431
C          1.60433        0.68155        6.20474
N          1.94545        0.81731        7.28580

