%nproc=4
%mem=12gb
#p UB3LYP/def2TZVP IOp(3/76=1000001500) IOp(3/77=0720008500) IOp(3/78=0810010000) scf=(maxconventionalcycles=120,xqc) int=ultrafine
#p EmpiricalDispersion=GD3BJ

MAKXAX_1_opt_2_SPE

0 2
Fe        -0.05062       -0.00824       -0.02111
O         -1.73088       -0.45833       -1.05002
O          1.13669        1.26607        1.01476
O          0.53788       -1.67607        0.94732
O         -1.74968        0.23646        1.03633
O          1.28908       -1.12256       -1.03997
O          0.31106        1.72915       -0.97137
N          1.09721        2.16604        0.02053
N         -2.51106       -0.16334        0.00125
N          1.37251       -2.01782       -0.04163
C          2.14999       -3.93739        1.16228
C          1.72605        3.29556        0.03061
C          2.14814       -3.04631       -0.02131
C          3.03500       -3.30158       -1.18142
C          2.59235        3.63497        1.19099
H          1.30227       -3.71834        1.82549
H          3.08566       -3.81132        1.73992
H          2.95790       -2.49687       -1.92437
H          2.10815       -4.99447        0.84493
H          2.77180       -4.26107       -1.66488
H          2.15133        4.46411        1.77625
H          2.72107        2.76865        1.85318
H          4.08585       -3.39023       -0.84923
H          3.58084        3.98053        0.83935
C         -3.79132       -0.25060        0.02255
C         -4.51147        0.12942        1.25592
C         -4.51363       -0.68710       -1.20349
H         -5.03416        0.17024       -1.67173
H         -3.81954       -1.11543       -1.93931
H         -3.85397        0.67701        1.94507
H         -5.28646       -1.43364       -0.94778
H         -5.38974        0.75282        1.01027
H         -4.89259       -0.76675        1.78320
C          1.54059        4.21537       -1.11810
H          2.41973        4.19487       -1.79058
H          0.65627        3.93394       -1.70669
H          1.43360        5.25435       -0.75980

