%nproc=4
%mem=12gb
#p UB3LYP/def2TZVP IOp(3/76=1000001500) IOp(3/77=0720008500) IOp(3/78=0810010000) scf=(maxconventionalcycles=120,xqc) int=ultrafine
#p EmpiricalDispersion=GD3BJ

MUXCAL_1_opt_1_SPE

0 1
Fe         0.00000        0.00000        0.00000
O          3.15879        3.04036        1.44597
O         -3.06090        1.25712        2.36079
O         -1.87025        0.67051        0.58259
N          0.44772        0.61897        2.00450
C          1.03178        1.99893        1.98418
C         -0.84003        0.45841        2.72180
H         -0.88114        0.99184        3.68129
C         -2.01632        0.83025        1.84143
C          0.79344        2.79847        3.26381
H          1.26787        3.78889        3.14037
H         -0.28512        2.96326        3.41909
C          2.52909        1.78864        1.74890
H          2.65347        1.06071        0.92708
C          0.41425        2.77763        0.82098
H         -0.64375        3.00619        1.03448
H          0.98300        3.70921        0.67332
H          1.14280        0.02390        2.46126
H          3.78323        2.88797        0.72447
O         -0.51345       -1.96660        0.34744
H          0.08450       -2.33226        1.01642
O          1.29285        2.11267        4.41074
H          2.20838        2.38811        4.55414
O          0.51345        1.96660       -0.34744
H         -0.08450        2.33226       -1.01642
O         -3.15879       -3.04036       -1.44597
O          3.06090       -1.25712       -2.36079
O          1.87025       -0.67051       -0.58259
N         -0.44772       -0.61897       -2.00450
C         -1.03178       -1.99893       -1.98418
C          0.84003       -0.45841       -2.72180
H          0.88114       -0.99184       -3.68129
C          2.01632       -0.83025       -1.84143
C         -0.79344       -2.79847       -3.26381
H         -1.26787       -3.78889       -3.14037
H          0.28512       -2.96326       -3.41909
C         -2.52909       -1.78864       -1.74890
H         -2.65347       -1.06071       -0.92708
C         -0.41425       -2.77763       -0.82098
H          0.64375       -3.00619       -1.03448
H         -0.98300       -3.70921       -0.67332
H         -1.14280       -0.02390       -2.46126
H         -3.78323       -2.88797       -0.72447
O         -1.29285       -2.11267       -4.41074
H         -2.20838       -2.38811       -4.55414
H         -0.94156       -0.61742        2.95221
H          2.96288        1.34585        2.66873
H          0.94156        0.61742       -2.95221
H         -2.96288       -1.34585       -2.66873

