%nproc=4
%mem=12gb
#p UB3LYP/def2TZVP IOp(3/76=1000001500) IOp(3/77=0720008500) IOp(3/78=0810010000) scf=(maxconventionalcycles=120,xqc) int=ultrafine
#p EmpiricalDispersion=GD3BJ

NALTIF_1_opt_2_SPE

0 2
N          0.02436       -0.24185       -1.90889
N         -1.49408        0.41496        0.25850
C         -1.85484        1.01014       -0.89173
C          2.50504        2.38410       -0.89758
H          2.75639        2.85123       -1.85450
C         -1.26199        0.44903       -2.15729
H         -1.16809        1.22622       -2.93581
H         -1.96567       -0.32289       -2.51857
C          1.69853        1.24806       -0.87436
C          1.23006        0.58594       -2.13491
H          2.03073       -0.11465       -2.43588
H          1.08148        1.32007       -2.94650
C         -2.77665        2.05034       -0.92636
H         -3.03468        2.51889       -1.88057
H          0.07761       -1.11819       -2.43165
C         -3.00736        1.84317        1.44542
H         -3.44950        2.13852        2.40067
C         -3.35830        2.46463        0.26033
H         -4.08988        3.27956        0.25756
C         -2.06908        0.82242        1.40904
H         -1.72941        0.27892        2.29950
Fe         0.06833       -1.10426        0.10152
Cl        -1.48138       -2.67644       -0.52354
Cl         0.09049       -1.49367        2.34923
Cl         1.93093       -2.36831       -0.46741
N          1.35782        0.64597        0.28178
C          1.82137        1.14684        1.44242
H          1.51211        0.58495        2.33248
C          2.63285        2.26929        1.49104
H          2.98853        2.63902        2.45652
C          2.97480        2.90185        0.30074
H          3.60969        3.79371        0.30623

