%nproc=4
%mem=12gb
#p UB3LYP/def2TZVP IOp(3/76=1000001500) IOp(3/77=0720008500) IOp(3/78=0810010000) scf=(maxconventionalcycles=120,xqc) int=ultrafine
#p EmpiricalDispersion=GD3BJ

OJIZUC_1_opt_1_SPE

2 1
Fe         0.00000        0.00000        0.00000
N         -0.06513        1.42732        1.62618
C         -0.36313        2.71022        1.34082
H         -0.52886        2.94358        0.28329
C         -0.43368        3.70166        2.30442
H         -0.68131        4.72604        2.01338
C         -0.17609        3.36310        3.61996
H         -0.21002        4.12055        4.40933
C          0.11973        2.04444        3.92645
H          0.30998        1.74013        4.95920
C          0.14697        1.09008        2.91626
N          0.06513       -1.42732       -1.62618
C          0.36313       -2.71022       -1.34082
H          0.52886       -2.94358       -0.28329
C          0.43368       -3.70166       -2.30442
H          0.68131       -4.72604       -2.01338
C          0.17609       -3.36310       -3.61996
H          0.21002       -4.12055       -4.40933
C         -0.11973       -2.04444       -3.92645
H         -0.30998       -1.74013       -4.95920
C         -0.14697       -1.09008       -2.91626
C         -0.35714        0.36430       -3.23935
H         -0.45020        0.48047       -4.32969
H         -1.30128        0.74683       -2.81108
C          0.77428        1.26367       -2.75557
H          0.74729        2.22559       -3.29433
H          1.75647        0.78930       -2.92960
O          0.59468        1.53221       -1.35930
H          1.37784        1.99651       -1.01849
C          0.35714       -0.36430        3.23935
H          0.45020       -0.48047        4.32969
H          1.30128       -0.74683        2.81108
C         -0.77428       -1.26367        2.75557
H         -0.74729       -2.22559        3.29433
H         -1.75647       -0.78930        2.92960
O         -0.59468       -1.53221        1.35930
H         -1.37784       -1.99651        1.01849
O          2.07243       -0.42746        0.27197
O         -2.07243        0.42746       -0.27197
H          2.56599       -0.19076        1.07442
H         -2.41610        1.28672        0.02550
H         -2.56599        0.19076       -1.07442
H          2.41610       -1.28672       -0.02550

