%nproc=4
%mem=12gb
#p UB3LYP/def2TZVP IOp(3/76=1000001500) IOp(3/77=0720008500) IOp(3/78=0810010000) scf=(maxconventionalcycles=120,xqc) int=ultrafine
#p EmpiricalDispersion=GD3BJ

PEGZIM_1_opt_1_SPE

0 1
Fe         0.00000        0.00000        0.00000
N         -0.04350       -1.74871        1.21183
C         -0.19408       -2.78351        1.65727
O          2.05033        0.37590        0.42254
H          2.23767        0.17858        1.35619
H          2.18415        1.33388        0.31168
N         -0.24364       -3.88499        2.32990
O         -2.05033       -0.37590       -0.42254
H         -2.23767       -0.17858       -1.35619
H         -2.18415       -1.33388       -0.31168
O          0.70693       -1.21207       -1.61323
H          1.35818       -0.67076       -2.09174
O         -0.70693        1.21207        1.61323
H         -1.35818        0.67076        2.09174
N         -1.59813       -5.85877        1.87449
C         -0.98711       -4.90560        2.00533
N          0.04350        1.74871       -1.21183
C          0.19408        2.78351       -1.65727
N          0.24364        3.88499       -2.32990
N          1.59813        5.85877       -1.87449
C          0.98711        4.90560       -2.00533
H          1.21235       -1.92045       -1.17700
H         -1.21235        1.92045        1.17700

