%nproc=4
%mem=12gb
#p UB3LYP/def2TZVP IOp(3/76=1000001500) IOp(3/77=0720008500) IOp(3/78=0810010000) scf=(maxconventionalcycles=120,xqc) int=ultrafine
#p EmpiricalDispersion=GD3BJ

PUWHUM_1_opt_1_SPE

0 1
Br        -0.61619       -1.60765        2.02628
Br        -0.89112       -1.84174       -1.72582
Fe        -0.09777       -0.10471        0.04223
N         -2.11532        0.88882        0.12883
N          2.10930       -0.52740       -0.06347
N          0.58160        1.35354       -1.58181
N          0.75630        1.60211        1.27793
C         -3.16273        1.35118        0.12398
C         -4.50420        1.93034        0.10379
C          2.75598        0.18048       -1.20169
C          1.71376        0.61274       -2.22400
C          1.05597        2.61816       -0.97413
C          0.50502        2.79858        0.43180
C          2.23799        1.40633        1.48980
C          2.61807       -0.04968        1.25358
C         -0.47971        1.59738       -2.58507
C          0.08332        1.77521        2.56322
H         -5.04503        1.65665        1.02445
H         -5.06307        1.54190       -0.76340
H         -4.44853        3.02874        0.03305
H          3.49064       -0.47927       -1.69475
H          3.32872        1.04243       -0.82820
H          2.18430        1.23147       -3.01681
H          1.26301       -0.27981       -2.68816
H          0.75490        3.48287       -1.59400
H          2.15405        2.63671       -0.95981
H          0.94029        3.70931        0.89572
H         -0.58520        2.93935        0.38990
H          2.50846        1.69562        2.51979
H          2.79753        2.07850        0.82480
H         -1.29330        2.17090       -2.11740
H         -0.88072        0.62356       -2.90808
H         -0.08599        2.16822       -3.45024
H          0.19981        0.85950        3.16184
H         -0.99589        1.90267        2.39518
H          0.47597        2.65675        3.11063
C          2.37163       -1.97816       -0.15944
H          1.95659       -2.35684       -1.10489
H          1.83372       -2.48617        0.65505
H          3.45841       -2.18784       -0.09821
H          3.71857       -0.17658        1.32158
H          2.13689       -0.68242        2.01639

