%nproc=4
%mem=12gb
#p UB3LYP/def2TZVP IOp(3/76=1000001500) IOp(3/77=0720008500) IOp(3/78=0810010000) scf=(maxconventionalcycles=120,xqc) int=ultrafine
#p EmpiricalDispersion=GD3BJ

QELZOX_1_opt_1_SPE

0 1
Fe        -0.97589       -0.03164       -0.31986
O         -0.77026       -0.04604       -2.38634
O         -1.43874       -1.04340        1.59341
O         -1.49616        1.00798        1.97281
O         -1.91316       -0.35431        3.57263
O         -2.97309       -1.06472       -0.84746
N          0.61240        1.35961       -0.19600
N          0.69557       -1.33938       -0.22397
N         -1.62426       -0.13456        2.39043
C          0.54342        2.69349       -0.20218
C          3.10915       -1.33259       -0.01462
C          3.08263       -2.73536       -0.02816
H          4.02493       -3.28749        0.05504
C          1.90291       -3.39188       -0.14567
H          1.86454       -4.48404       -0.16553
C          0.69687       -2.67514       -0.25439
C          1.87644       -0.67352       -0.11622
C          1.83549        0.76114       -0.12050
C         -0.60765       -3.37496       -0.42304
H         -1.16715       -2.96486       -1.27980
H         -1.24251       -3.17625        0.45990
H         -0.47752       -4.45851       -0.55267
H         -1.58405       -0.51216       -2.65625
H         -0.04593       -0.65130       -2.61307
O         -2.80062        1.03847       -0.59340
O         -4.71559        0.19458       -1.10776
N         -3.52707        0.05227       -0.85638
C         -0.79767        3.34025       -0.29688
H         -1.33923        2.98420       -1.18837
H         -0.71570        4.43586       -0.32456
H         -1.41446        3.02778        0.56452
C          1.71477        3.47483       -0.12061
H          1.61069        4.56280       -0.12296
C          2.92816        2.89025       -0.03718
H          3.84099        3.49127        0.03380
C          3.03056        1.48639       -0.03592
C          4.26744        0.78543        0.07831
H          5.18745        1.37312        0.15999
C          4.30699       -0.55739        0.10315
H          5.25855       -1.08966        0.19999

