%nproc=4
%mem=12gb
#p UB3LYP/def2TZVP IOp(3/76=1000001500) IOp(3/77=0720008500) IOp(3/78=0810010000) scf=(maxconventionalcycles=120,xqc) int=ultrafine
#p EmpiricalDispersion=GD3BJ

QUSJOE_1_opt_1_SPE

0 1
Fe        -0.00293        0.00309        0.02525
Cl         0.01904        0.00847       -2.39259
Cl         0.03110       -0.01195        2.43005
N          1.83488       -1.49434        0.01868
N         -1.85028        1.47553        0.03415
N         -1.78366       -1.54424       -0.04500
N          1.77028        1.55818       -0.03936
C         -1.59933       -2.59144       -1.03046
H         -0.80312       -3.27547       -0.69900
H         -1.29622       -2.14441       -1.98866
H         -2.52536       -3.19011       -1.16405
C          2.09543       -2.22845       -1.25057
H          1.25991       -2.91161       -1.45030
H          3.03424       -2.81118       -1.16561
H          2.14389       -1.53030       -2.09570
C         -1.74765        2.51015        1.05929
H         -0.93922        3.20949        0.79687
H         -1.49724        2.04579        2.02464
H         -2.69015        3.09022        1.14299
C          1.72381       -2.52775        1.06570
H          0.91938       -3.23001        0.80147
H          1.46795       -2.05159        2.02299
H          2.66906       -3.10111        1.15704
C         -2.10435        2.17146       -1.25785
H         -2.16289        1.44891       -2.08036
H         -1.25945        2.83581       -1.48320
H         -3.03416        2.77060       -1.18961
C          2.90897        0.67024       -0.45779
H          3.86720        1.21769       -0.34481
H          2.76543        0.45588       -1.52760
C          1.63318        2.62933       -1.03030
H          0.84978        3.33173       -0.70612
H          1.33518        2.19556       -1.99625
H          2.57940        3.19796       -1.14093
C          2.94723       -0.61138        0.33525
H          3.91618       -1.12717        0.15976
H          2.89776       -0.38232        1.41121
C          2.09800        2.22355        1.27395
H          2.16920        1.47571        2.07260
H          1.27253        2.89743        1.54105
H          3.03622        2.80466        1.18014
C         -3.00362        0.61442        0.33740
H         -3.95490        1.13550        0.10618
H         -2.99542        0.40245        1.41726
C         -2.92314       -0.69608       -0.45298
H         -3.87370       -1.25910       -0.34128
H         -2.79685       -0.47079       -1.52277
C         -2.10169       -2.16836        1.27121
H         -2.18078       -1.40154        2.05017
H         -1.27417       -2.82868        1.56557
H         -3.03552       -2.76125        1.19665

