%nproc=4
%mem=12gb
#p UB3LYP/def2TZVP IOp(3/76=1000001500) IOp(3/77=0720008500) IOp(3/78=0810010000) scf=(maxconventionalcycles=120,xqc) int=ultrafine
#p EmpiricalDispersion=GD3BJ

RIDYIN_1_opt_2_SPE

-1 2
Fe        -1.74838        0.06617       -0.03351
B          1.35411       -0.07164       -0.00949
N         -0.51749        1.46144       -0.66998
N          0.82508        1.25148       -0.61605
N         -0.59779       -1.28989       -0.90236
N          0.76165       -1.24337       -0.81420
N         -0.58112       -0.09743        1.56239
N          0.77222       -0.18153        1.41730
N         -3.56563        2.09386        1.36732
N         -3.46813        0.45467       -2.53585
N         -3.55160       -2.23157        0.89330
N          2.86175       -0.04846        0.01227
N          3.62971       -0.72955       -0.86578
C         -0.70005        2.67692       -1.17009
H         -1.71681        3.04765       -1.29872
C          0.52155        3.26506       -1.44744
H          0.69871        4.25298       -1.86993
C          1.45953        2.34148       -1.09125
H          2.54736        2.37170       -1.13979
C         -0.90364       -2.45095       -1.48521
H         -1.95232       -2.69820       -1.64547
C          0.24317       -3.16060       -1.76277
H          0.32150       -4.13568       -2.24095
C          1.26299       -2.38085       -1.32054
H          2.34099       -2.51492       -1.35259
C         -0.85338       -0.26056        2.85249
H         -1.89189       -0.22524        3.18095
C          0.32465       -0.46174        3.56300
H          0.43681       -0.63158        4.63252
C          1.31420       -0.41876        2.62425
H          2.39043       -0.54548        2.73309
C         -2.89214        1.33853        0.84188
C         -2.84586        0.27859       -1.58811
C         -2.91268       -1.33907        0.56776
C          3.65430        0.72825        0.76752
H          3.23157        1.38986        1.52432
C          4.92849        0.54331        0.39437
H          5.80921        1.02588        0.81772
C          4.86681       -0.36316       -0.60740
H          5.68360       -0.79515       -1.19185

