%nproc=4
%mem=12gb
#p UB3LYP/def2TZVP IOp(3/76=1000001500) IOp(3/77=0720008500) IOp(3/78=0810010000) scf=(maxconventionalcycles=120,xqc) int=ultrafine
#p EmpiricalDispersion=GD3BJ

RODVAI_1_opt_2_SPE

-1 2
Fe         0.00678       -0.03464       -0.07484
O         -0.48681       -1.38903        1.38863
O         -2.11239       -2.39251        2.54371
O         -0.49913        1.36190       -1.42933
O         -2.14968        2.46151       -2.46179
N         -2.04067       -0.05721       -0.04809
C         -1.72446       -1.61793        1.67393
C         -2.69408       -0.83233        0.82636
C         -2.70431        0.76708       -0.86118
C         -1.74874        1.61338       -1.67629
O          0.43669        1.39500        1.31734
O          2.02997        2.58083        2.36053
O          0.54270       -1.43593       -1.41776
O          2.25676       -2.54329       -2.36719
O          6.09336        0.18937        0.09311
H          6.49795       -0.42230       -0.54119
N          2.04139       -0.05051        0.06001
C          1.66942        1.68418        1.60748
C          2.66314        0.81242        0.87493
C          4.03147        0.89698        0.91819
H          4.51446        1.61966        1.57949
C          4.77236        0.06642        0.05669
C          4.10121       -0.83088       -0.79570
H          4.61888       -1.50183       -1.48959
C          2.72305       -0.85055       -0.75668
C          1.79449       -1.70718       -1.59876
O         -6.10149       -0.04724        0.09159
H         -6.49117        0.56989       -0.54688
C         -4.06427       -0.84144        0.90190
H         -4.56956       -1.48266        1.62720
C         -4.78383       -0.00464        0.01471
C         -4.07921        0.82813       -0.87752
H         -4.56910        1.52524       -1.56580

