%nproc=4
%mem=12gb
#p UB3LYP/def2TZVP IOp(3/76=1000001500) IOp(3/77=0720008500) IOp(3/78=0810010000) scf=(maxconventionalcycles=120,xqc) int=ultrafine
#p EmpiricalDispersion=GD3BJ

SIBZEI_1_opt_2_SPE

1 2
Fe        -0.00818       -0.12932        0.18281
O          0.82619       -1.42098       -0.98746
C          2.05364       -1.52667       -1.37750
C          3.06295       -0.71629       -1.00628
C          2.97891        0.35418       -0.07236
C          2.28864       -2.66802       -2.33539
N          1.89319        0.64419        0.57726
C          0.78907        1.58419        2.50531
N         -0.45894        1.27314        1.79604
O         -0.41803        1.25335       -1.11139
C         -1.57264        1.78373       -1.37779
C         -2.76519        1.23290       -1.04820
C         -2.97788       -0.01267       -0.41758
C         -1.49328        3.09057       -2.13021
C         -4.42066       -0.43811       -0.27329
N         -1.99111       -0.74775        0.00968
C         -2.22460       -2.08014        0.60638
C         -1.43457       -2.30801        1.80221
N         -0.08388       -1.73477        1.65792
H          4.04619       -0.90342       -1.43915
H          3.34275       -2.75131       -2.63486
H          1.96541       -3.61577       -1.87146
H          1.66404       -2.52371       -3.23372
H          1.02756        0.72617        3.15771
H          0.68115        2.46905        3.15904
H         -0.81868        2.09550        1.29888
H         -1.20262        0.96938        2.42975
H         -0.86989        3.80672       -1.56819
H         -0.98798        2.92232       -3.09680
H         -4.62539       -1.35795       -0.84814
H         -3.28904       -2.26066        0.82097
H         -1.94653       -2.81886       -0.17335
H         -1.39634       -3.38177        2.05778
H         -1.89866       -1.79955        2.66800
H          0.53321       -2.39390        1.16852
H          0.35229       -1.56631        2.56794
C          1.88050        1.78390        1.50912
H          1.71198        2.72109        0.94006
H          2.83987        1.90118        2.03782
C          4.24891        1.14461        0.14850
H          5.05211        0.78856       -0.50917
H          4.08632        2.21692       -0.05437
H          4.60015        1.05895        1.19178
H         -5.09496        0.34560       -0.64108
H         -4.67773       -0.64655        0.77956
H         -3.66097        1.78359       -1.33993
H         -2.48429        3.52947       -2.31358

