%nproc=4
%mem=12gb
#p UB3LYP/def2TZVP IOp(3/76=1000001500) IOp(3/77=0720008500) IOp(3/78=0810010000) scf=(maxconventionalcycles=120,xqc) int=ultrafine
#p EmpiricalDispersion=GD3BJ

SOGLOP_1_opt_1_SPE

0 1
Fe         0.00000        0.00000        0.00000
O         -0.13324       -1.67997        1.20080
O          0.13324        1.67997       -1.20080
O         -1.42795       -3.40938        1.75988
O          1.42795        3.40938       -1.75988
C         -1.24509       -2.31518        1.22756
C          1.24509        2.31518       -1.22756
N         -2.20216       -0.36890        0.19609
N          2.20216        0.36890       -0.19609
N         -2.30793       -1.71763        0.58743
N          2.30793        1.71763       -0.58743
N         -0.05954       -1.34651       -1.76960
N          0.05954        1.34651        1.76960
N          0.49828       -0.86542       -3.02148
N         -0.49828        0.86542        3.02148
H         -2.55674        0.27443        0.91597
H          2.55674       -0.27443       -0.91597
H          0.45994       -2.17723       -1.47131
H         -0.45994        2.17723        1.47131
H          0.30653        0.14303       -3.02612
H         -0.30653       -0.14303        3.02612
H         -2.71696       -0.19314       -0.67016
H          2.71696        0.19314        0.67016
H         -3.22453       -2.05492        0.87646
H          3.22453        2.05492       -0.87646
H          0.00969       -1.29150       -3.81313
H         -0.00969        1.29150        3.81313
H         -1.03786       -1.64823       -1.85071
H          1.03786        1.64823        1.85071

