%nproc=4
%mem=12gb
#p UB3LYP/def2TZVP IOp(3/76=1000001500) IOp(3/77=0720008500) IOp(3/78=0810010000) scf=(maxconventionalcycles=120,xqc) int=ultrafine
#p EmpiricalDispersion=GD3BJ

TEJMUS_1_opt_2_SPE

1 2
C         -2.34752        1.40365       -1.98994
H         -3.22904        1.73375       -1.40304
C         -2.51082       -0.03759       -2.42211
H         -1.67125       -0.32207       -3.07559
H         -3.45725       -0.21619       -2.96187
C         -2.26191       -2.31598       -1.58061
H         -1.27736       -2.44518       -2.05069
H         -2.30384       -2.94308       -0.67906
H         -3.05645       -2.62435       -2.28113
C          1.37727       -1.53221       -0.78225
C          2.53417       -1.63136       -1.58546
H          2.56242       -1.03914       -2.50409
C          3.60009       -2.43215       -1.21508
H          4.48448       -2.46894       -1.85974
C          3.56548       -3.18359       -0.04165
H          4.41304       -3.81262        0.24251
C          2.44407       -3.12387        0.74047
H          2.38875       -3.71871        1.65934
C          1.34425       -2.31532        0.40764
C          0.19100       -2.36848        1.28434
H          0.22449       -3.10994        2.10008
C         -1.96169       -1.72628        2.10768
H         -2.85389       -2.13841        1.59682
H         -1.72321       -2.39471        2.95250
C         -2.21156       -0.30165        2.56525
H         -3.09316       -0.20769        3.22313
O          0.37957       -0.75574       -1.19262
N         -2.41260       -0.88426       -1.20350
H         -3.31043       -0.80665       -0.71319
N         -0.83962       -1.62858        1.15104
N         -2.36850        0.53550        1.33235
H         -3.30834        0.35052        0.96478
Fe        -0.95731       -0.09752       -0.01132
C          1.15508        1.67765        0.65673
C          2.35091        1.87949        1.38024
H          2.56259        1.19572        2.20601
C          3.22208        2.90807        1.04785
H          4.14356        3.03099        1.62647
C          2.94035        3.77338        0.00145
H          3.62879        4.58450       -0.25069
C          1.78520        3.59542       -0.71640
H          1.54388        4.26710       -1.54739
C          0.88011        2.53982       -0.42016
C         -0.31564        2.43818       -1.21974
H         -0.50816        3.24095       -1.94958
O          0.35554        0.70310        1.06929
N         -1.14651        1.44493       -1.13963
C         -2.32636        1.97841        1.68887
H         -1.31256        2.22113        2.03311
H         -2.55467        2.58775        0.80371
H         -3.05471        2.20702        2.48552
H         -2.26157        2.08211       -2.85612
H         -1.32376        0.07617        3.09458

