%nproc=4
%mem=12gb
#p UB3LYP/def2TZVP IOp(3/76=1000001500) IOp(3/77=0720008500) IOp(3/78=0810010000) scf=(maxconventionalcycles=120,xqc) int=ultrafine
#p EmpiricalDispersion=GD3BJ

TUHCOQ_1_opt_2_SPE

0 2
Fe        -0.00362       -0.56039        0.12613
Cl         0.06338       -0.46436        2.43293
O          1.49198       -1.72283       -0.11242
O         -0.01117       -0.33798       -2.07140
H          0.75980       -0.89952       -2.27401
H         -0.77492       -0.90675       -2.27980
N          2.02291        4.51590       -0.15821
N         -2.09095        4.48314       -0.06383
N          1.31598        1.09960       -0.02991
N         -1.34045        1.09231       -0.03349
C          2.79298       -1.50027       -0.15072
C          3.65539       -2.60740       -0.18774
C          4.77065       -0.06326       -0.23015
H          5.19966        0.94435       -0.24115
C          3.36214       -0.19507       -0.16042
C          2.62229        1.01494       -0.10473
H          3.20451        1.94955       -0.13506
C          0.66572        2.32639       -0.04144
C          1.40533        3.56050       -0.08970
C         -0.69794        2.32349       -0.04981
C         -1.44564        3.54359       -0.06278
C         -2.63809        1.00665       -0.13851
H         -3.22075        1.94026       -0.19648
C          5.01266       -2.43578       -0.24761
H          5.66226       -3.31753       -0.27266
C          5.58397       -1.16111       -0.26858
H          6.67035       -1.04547       -0.31538
O         -1.48415       -1.69478       -0.10261
C         -3.37560       -0.19815       -0.17169
C         -4.78826       -0.10245       -0.23174
C         -4.99035       -2.47303       -0.22162
H         -5.62262       -3.36727       -0.23305
C         -3.62431       -2.61723       -0.17395
H         -3.15133       -3.60218       -0.14200
C         -2.78224       -1.50287       -0.14726
C         -5.58319       -1.20496       -0.24845
H         -6.67157       -1.10650       -0.28462
H         -5.23435        0.89834       -0.25235
H          3.19673       -3.59902       -0.16162

