%nproc=4
%mem=12gb
#p UB3LYP/def2TZVP IOp(3/76=1000001500) IOp(3/77=0720008500) IOp(3/78=0810010000) scf=(maxconventionalcycles=120,xqc) int=ultrafine
#p EmpiricalDispersion=GD3BJ

XIWMEW_1_opt_2_SPE

0 2
Fe        -1.02631       -0.69320       -0.57829
C          2.70145        1.65108       -0.48014
C          3.99764        1.29032       -0.00224
H          4.82732        1.98108       -0.18279
C          4.19268        0.13672        0.66531
H          5.18596       -0.13250        1.03864
C          3.11188       -0.78148        0.90039
C          3.26994       -2.00441        1.57161
H          4.25263       -2.27396        1.97239
C          2.19935       -2.84405        1.69607
H          2.28706       -3.80774        2.20483
C          0.97560       -2.47583        1.15330
H          0.09132       -3.12476        1.19343
C          1.83791       -0.47035        0.38949
C          1.62269        0.76192       -0.29522
N          0.36780        1.02786       -0.75912
N          0.77844       -1.32827        0.51314
O         -1.51745        0.13218        1.25400
Cl        -2.14006       -2.64082       -0.10186
Cl        -2.71793        0.45343       -1.62308
Cl         0.03115       -1.47127       -2.51787
C          0.15710        2.16108       -1.38081
H         -0.86738        2.29864       -1.75164
C          1.16024        3.11803       -1.59131
H          0.91608        4.04270       -2.12033
C          2.43027        2.85281       -1.15511
H          3.24397        3.56630       -1.32440
C         -3.43176        1.32836        2.51660
H         -3.85208        2.30649        2.80124
H         -3.10882        0.75470        3.40084
H         -4.18117        0.74908        1.95524
C         -0.97109        2.37633        2.48874
H         -0.77375        1.78052        3.39608
H         -1.39062        3.36144        2.75085
H         -0.03054        2.51987        1.93440
S         -2.07918        1.54004        1.42027

