%nproc=4
%mem=12gb
#p UB3LYP/def2TZVP IOp(3/76=1000001500) IOp(3/77=0720008500) IOp(3/78=0810010000) scf=(maxconventionalcycles=120,xqc) int=ultrafine
#p EmpiricalDispersion=GD3BJ

YITNEV_1_opt_2_SPE

-1 2
Fe        -1.73694       -0.00993       -0.18172
B          1.36543        0.02316        0.34482
C         -3.00104       -1.26578        0.53426
C         -1.30475        0.03335        2.81154
H         -2.38352        0.01370        2.96751
C         -0.26935        0.05647        3.72629
H         -0.33948        0.06467        4.81253
C          0.85792        0.06190        2.96364
H          1.90569        0.07745        3.26005
C         -0.55513       -2.54046       -1.37661
H         -1.54407       -2.85162       -1.71203
C          0.68333       -3.12657       -1.54522
H          0.91106       -4.06398       -2.05038
C          1.55479       -2.29293       -0.92702
C          2.91797        0.04545        0.73733
H          3.06360       -0.79932        1.43637
N         -3.74794       -1.96692        1.05082
N         -0.84194        0.03473        1.57309
N          0.51597        0.04177        1.65827
N         -0.43142       -1.39621       -0.70645
N          0.89219       -1.24301       -0.42284
N         -0.44951        1.34600       -0.78662
N          0.87577        1.24349       -0.49319
C          4.05197        0.01613       -0.30806
H          3.63312        0.02246       -1.33220
C          4.91843       -1.24196       -0.13937
H          5.40721       -1.23026        0.85187
H          4.34087       -2.17768       -0.19803
H          5.71486       -1.29462       -0.90358
C          4.98187        1.21570       -0.14919
H          5.44255        1.21071        0.85547
H          5.79953        1.20355       -0.89237
H          4.45389        2.17886       -0.25530
C         -3.01136        1.35294        0.30316
N         -3.75873        2.16595        0.59635
C         -2.59012       -0.14591       -1.90591
N         -3.05541       -0.28762       -2.93963
C         -0.61211        2.47952       -1.46907
H         -1.61336        2.76300       -1.79221
C          0.60718        3.11321       -1.62868
H          0.80252        4.05376       -2.14176
C          1.51652        2.30712       -1.00782
H          2.59054        2.42128       -0.88247
H          2.63197       -2.36959       -0.81776
H          3.04675        0.94374        1.37060

