%nproc=4
%mem=12gb
#p UB3LYP/def2TZVP IOp(3/76=1000001500) IOp(3/77=0720008500) IOp(3/78=0810010000) scf=(maxconventionalcycles=120,xqc) int=ultrafine
#p EmpiricalDispersion=GD3BJ

ZEKRIQ_1_opt_2_SPE

1 2
Fe         0.00840       -0.53377        0.01453
S         -0.82113        0.88755       -1.47548
S          0.79614        0.96956        1.42483
N         -1.80181       -0.59664        0.70324
N          0.36675       -1.98970        1.40250
N          1.81682       -0.61779       -0.67684
N         -0.34611       -2.05329       -1.32901
C         -3.48407        1.36388       -1.77381
C         -2.34405        2.59140        0.11689
C         -2.76186        0.15863        0.31455
C         -4.18492        0.00515        0.78301
C         -2.01932       -1.71858        1.63561
C         -0.72310       -1.90862        2.38923
C          2.41107        1.31568        0.60576
C          2.28941        2.58343       -0.25257
C          3.46867        1.53112        1.70162
C          2.77083        0.15324       -0.30518
C          4.18657       -0.02954       -0.73398
C         -2.42555        1.25575       -0.66287
H          1.25666       -1.74936        1.85019
H          0.46118       -2.94862        1.05094
H         -0.47368       -2.99588       -0.94497
H         -1.22141       -1.80210       -1.79913
H         -4.45194        1.72481       -1.38775
H         -3.14031        2.08733       -2.52985
H         -3.63953        0.39779       -2.28149
H         -3.29743        2.81481        0.62719
H         -1.53206        2.55744        0.85950
H         -2.13462        3.40851       -0.59135
H         -4.24826       -0.22435        1.85762
H         -4.76733        0.91544        0.59135
H         -4.67377       -0.82192        0.23653
H         -2.27842       -2.62295        1.05042
H         -2.85139       -1.54101        2.33443
H          1.47967        2.48177       -0.99148
H          2.05674        3.44029        0.39950
H          4.75769        0.90385       -0.63817
H          4.68144       -0.77878       -0.08847
C          2.04542       -1.79223       -1.55366
C          0.76450       -2.04317       -2.31074
H          2.31015       -2.65892       -0.91653
H          2.88307       -1.64414       -2.25254
H          0.57348       -1.20611       -3.00118
H          0.81360       -2.97425       -2.90091
H         -0.76143       -2.79293        3.04927
H         -0.52761       -1.02244        3.01389
H          3.23536        2.80400       -0.77910
H          4.42638        1.88138        1.28225
H          3.11144        2.30422        2.40007
H          3.64747        0.61153        2.28281
H          4.27506       -0.37990       -1.77290

