%nproc=4
%mem=12gb
#p UB3LYP/def2TZVP IOp(3/76=1000001500) IOp(3/77=0720008500) IOp(3/78=0810010000) scf=(maxconventionalcycles=120,xqc) int=ultrafine
#p EmpiricalDispersion=GD3BJ

ZIMLUC_1_opt_1_SPE

2 1
N          1.69673        1.34154        0.22247
N          3.87275       -1.58586       -0.16083
N          3.89696        1.48899        0.33102
C          2.83206       -0.75683       -0.00771
C          2.84062        0.67410        0.18428
C          3.38828        2.75090        0.46634
C          2.04404        2.65384        0.40185
H          4.86348       -1.35992       -0.15363
H          4.88295        1.24525        0.35729
H          4.03015        3.62011        0.60478
C         -0.44661       -1.41071        2.80278
H          0.19193       -2.20104        2.38363
H         -0.22454       -1.30812        3.87750
H         -1.50496       -1.69311        2.66450
O         -0.12587       -0.20569        2.11755
H         -0.58993        0.54442        2.52058
Fe        -0.00003        0.00001        0.00002
N         -1.69583       -1.34184       -0.22293
N         -3.87282        1.58589        0.16086
N         -3.89702       -1.48896       -0.33099
C         -2.83212        0.75686        0.00774
C         -2.84069       -0.67407       -0.18424
C         -3.38835       -2.75087       -0.46631
C         -2.04410       -2.65381       -0.40182
H         -4.86354        1.35996        0.15364
H         -4.88301       -1.24517       -0.35702
H         -4.03014       -3.62014       -0.60463
N          1.67433       -1.40506       -0.07024
C          3.34728       -2.83831       -0.33371
C          2.00234       -2.71954       -0.27787
H          3.97775       -3.71484       -0.47757
H          1.25366       -3.50446       -0.37282
N         -1.67440        1.40509        0.07027
C         -3.34734        2.83834        0.33375
C         -2.00240        2.71956        0.27791
H         -3.97781        3.71487        0.47759
H         -1.25373        3.50449        0.37285
O          0.12581        0.20571       -2.11752
H          0.58984       -0.54441       -2.52055
C          0.44655        1.41074       -2.80274
H         -0.19198        2.20107       -2.38359
H          0.22445        1.30816       -3.87746
H          1.50490        1.69313       -2.66449
H          1.30806        3.45290        0.47229
H         -1.30852       -3.45326       -0.47240

